-- =====================================================================
-- This is an ECLIPSE-type input file for fluid properties using the
-- ad-blackoil module in MRST. This file is for a two-phase fluid system 
-- with CO2 (dry gas) and brine (live oil). PVT properties are for 20C of 
-- temperature (i.e approx lab), and four regions are specified for
-- kr-Pc.
-- =====================================================================
RUNSPEC
TITLE
   MODEL 1 RUN

DIMENS
   30000    1    1  / -- This is wrong (unstructured grid), here just to read the file.

OIL

GAS

DISGAS

METRIC

TABDIMS
-- NTSFUN NTPVT NSSFUN NPPVT NTFIP NRPVT
    12       1     16    18     1     16 
-- NRVPVT NTENDP NEOSRR NEOSRS NFLUXR NTHERR (SET TO DEFAULTS)
     20     1      1     NaN     10     1
-- NTROCC(N ROCK tables)
      1 /

--HYSTERESIS OPTION
SATOPTS
        'HYSTER'    /

START
  24 'NOV' 2021  /

GRID    ================================================================

/

PROPS    ===============================================================
-------- THE PROPS SECTION DEFINES THE REL. PERMEABILITIES, CAPILLARY
-------- PRESSURES, AND THE PVT PROPERTIES OF THE RESERVOIR FLUIDS
----------------------------------------------------------------------
-- Units are "metric units", i.e. densities in kg/m^3 and p in bar.
--
-- SGAS KRG KROG(SGAS) PCOG(SGAS)
SGOF
0	0	1	0
0.00100000000000000	6.55760020873212e-05	0.995772338743277	0
0.0707142857142857	0.0246394078360673	0.732955081113092	0
0.141428571428571	0.0646732169972058	0.524022345702336	0
0.212142857142857	0.113730999145997	0.363860521641822	0
0.282857142857143	0.169753470724451	0.244011942252500	0
0.353571428571429	0.231599095683867	0.156887866947521	0
0.424285714285714	0.298519738624208	0.0957526750587589	0
0.495000000000000	0.369978447940030	0.0547067179180083	0
0.565714285714286	0.445566838344259	0.0286675426490707	0
0.636428571428571	0.524961486607352	0.0133490924934328	0
0.707142857142857	0.607898479994884	0.00523831458433423	0
0.777857142857143	0.694157445907197	0.00156830716910518	0
0.848571428571429	0.783550966908060	0.000286570998330961	0
0.919285714285714	0.875917256952535	1.56773587691739e-05	0
0.990000000000000	0.971114915062588	0                   0
/
0                   0                   1                   0
0.00100000000000000	6.55819839549387e-05	0.995772337567793	0.00261762398841106
0.0707142857142857	0.0246402313243653	0.732955017665532	0.00269262331552247
0.141428571428571	0.0646747700888927	0.524022251346697	0.00277721574444971
0.212142857142857	0.113733104495930	0.363860419143558	0.00287219039918992
0.282857142857143	0.169755950380018	0.244011846349348	0.00297995474193745
0.353571428571429	0.231601777373365	0.156887785978330	0.00310379418145060
0.424285714285714	0.298522456544337	0.0957526124675437	0.00324833717396503
0.495000000000000	0.369981042459555	0.0547066736246513	0.00342036477285701
0.565714285714286	0.445569155480805	0.0286675142764787	0.00363031573621591
0.636428571428571	0.524963377494397	0.0133490764387823	0.00389533172368296
0.707142857142857	0.607899800396337	0.00523830691896963	0.00424615537440611
0.777857142857143	0.694158055790557	0.00156830434715335	0.00474546940436861
0.848571428571429	0.783550730073096	0.000286570346961824	0.00555048152270167
0.919285714285714	0.875916040708684	1.56773104417436e-05	0.00725546816292882
0.990000000000000	0.971112589947931	0                   0.0155113354600100
/
0                   0                   1                   0
0.00100000000000000	6.65022610446645e-05	0.995729289235800	0.00385820586521417
0.0700000000000000	0.0246384314272098	0.732956129751050	0.00396863800239720
0.140000000000000	0.0646713755166923	0.524023905178967	0.00409320959710787
0.210000000000000	0.113728502897966	0.363862215698363	0.00423306628078989
0.280000000000000	0.169750530733955	0.244013527308831	0.00439175185958198
0.350000000000000	0.231595916239813	0.156889205181616	0.00457410233672098
0.420000000000000	0.298516516345396	0.0957537095485132	0.00478693040243170
0.490000000000000	0.369975372126475	0.0547074499869815	0.00504021680809633
0.560000000000000	0.445564091597558	0.0286680115845611	0.00534932527153130
0.630000000000000	0.524959245462707	0.0133493578413948	0.00573948356452497
0.700000000000000	0.607896915496683	0.00523844127619324	0.00625593367925317
0.770000000000000	0.694156724115163	0.00156835380998858	0.00699091511972953
0.840000000000000	0.783551249337557	0.000286581764127082	0.00817574163587862
0.910000000000000	0.875918700957099	1.56781575281633e-05	0.0106846962777615
0.980000000000000	0.971117674167168	0                   0.0228277428030450
/
0	0	1	0
0.00100000000000000	6.65285836051619e-05	0.995729269581373	0.00527989374259839
0.0700000000000000	0.0246420095851357	0.732955079565360	0.00543097258255711
0.140000000000000	0.0646781239061877	0.524022343400636	0.00560139367721387
0.210000000000000	0.113737650964212	0.363860519141491	0.00579272380669295
0.280000000000000	0.169761305285245	0.244011939913050	0.00600981041316120
0.350000000000000	0.231607568769225	0.156887864972368	0.00625926841713374
0.420000000000000	0.298528326451891	0.0957526735319160	0.00655041643800893
0.490000000000000	0.369986646227015	0.0547067168375211	0.00689690629279699
0.560000000000000	0.445574160653618	0.0286675419569529	0.00731975238524867
0.630000000000000	0.524967462664251	0.0133490921017974	0.00785346052100907
0.700000000000000	0.607902654152965	0.00523831439734613	0.00855991010621789
0.770000000000000	0.694159375800041	0.00156830710026678	0.00956525787489439
0.840000000000000	0.783550222276074	0.000286570982441525	0.0111858630241229
0.910000000000000	0.875913418623773	1.56773575902788e-05	0.0146173885054647
0.980000000000000	0.971107574064920	0	0.0312228159077743
/
0                   0                   1                   0
0.00100000000000000	6.74643552690033e-05	0.995685313437379	0.00781001948300473
0.0692857142857143	0.0246391935424570	0.732955055762526	0.00803348426443170
0.138571428571428	0.0646728128473142	0.524022308002400	0.00828559522060958
0.207857142857143	0.113730451295990	0.363860480688486	0.00856863864477102
0.277142857142857	0.169752825488242	0.244011903934250	0.00888978588270130
0.346428571428571	0.231598397896740	0.156887834596157	0.00925882313547294
0.415714285714286	0.298519031437938	0.0957526500503421	0.00968953654389229
0.485000000000000	0.369977772900036	0.0547067002205282	0.0102021229475122
0.554285714285714	0.445566235525788	0.0286675313127566	0.0108276717285738
0.623571428571429	0.524960994754205	0.0133490860787713	0.0116172321616404
0.692857142857143	0.607898136645751	0.00523831152162521	0.0126623517207695
0.762142857142857	0.694157287506753	0.00156830604158958	0.0141496744579239
0.831428571428571	0.783551028903605	0.000286570738075289	0.0165472466484003
0.900714285714286	0.875917573877950	1.56773394598603e-05	0.0216240535471680
0.970000000000000	0.971115520611479	0                   0.0461924290011386
/
0	0	1	0
1e-4	            2.98876217294887e-06	0.999539406156067	0.0255977532487947
0.0650000000000001	0.0246394280464673	0.732955026532258	0.0263397858922075
0.130000000000000	0.0646732551176982	0.524022264532792	0.0271666690364851
0.195000000000000	0.113731050827026	0.363860433467575	0.0280950154590746
0.260000000000000	0.169753531601095	0.244011859751705	0.0291483496654112
0.325000000000000	0.231599161530340	0.156887797293682	0.0303587741691940
0.390000000000000	0.298519805373272	0.0957526212145942	0.0317715134116001
0.455000000000000	0.369978511675769	0.0547066798145967	0.0334528226218893
0.520000000000000	0.445566895289273	0.0286675182415153	0.0355046914062557
0.585000000000000	0.524961533109697	0.0133490786824008	0.0380945915188269
0.650000000000000	0.607898512516171	0.00523830799019516	0.0415228594154702
0.715000000000000	0.694157461012132	0.00156830474151769	0.0464018282904126
0.780000000000000	0.783550961255341	0.000286570437989850	0.0542670986962615
0.845000000000000	0.875917227286939	1.56773171954394e-05	0.0709228131772785
0.910000000000000	0.971114858208083	0	0.151540035062344
/
0.160000000000000	0	0.477597504035440	0
0.215333333333333	0.00404987749775476	0.357644932286270	0
0.270666666666667	0.0152324030066552	0.262137670353569	0
0.326000000000000	0.0343666307065471	0.187413936345205	0
0.381333333333333	0.0622726543013453	0.130132871624236	0
0.436666666666667	0.0995978554515003	0.0872696345639366	0
0.492000000000000	0.146794741265782	0.0561101505509836	0
0.547333333333333	0.204108858408606	0.0342454589876191	0
0.602666666666667	0.271566309649485	0.0195655804253901	0
0.658000000000000	0.348958001562187	0.0102528013495407	0
0.713333333333333	0.435818258975244	0.00477423528089695	0
0.768666666666667	0.531393999629456	0.00187345666480840	0
0.824000000000000	0.634596625072282	0.000560897111298697	0
0.879333333333333	0.743917149381232	0.000102490665293285	0
0.934666666666667	0.857240423810748	5.60692791542877e-06	0
0.990000000000000	0.971114915062588	0                   0
/
0.159747258485175	0                   0.478207373946235	0.00280181913202439
0.215097441252830	0.00404544606163587	0.358101599454882	0.00287669300869078
0.270447624020485	0.0152201540450353	0.262472364154508	0.00296104337731378
0.325797806788140	0.0343456468648937	0.187653206357200	0.00305515521521980
0.381147989555795	0.0622434735400879	0.130298998073632	0.00316016183909820
0.436498172323450	0.0995619982604295	0.0873810324636402	0.00327804658574202
0.491848355091105	0.146754333108055	0.0561817670937750	0.00341269772367790
0.547198537858760	0.204066296124838	0.0342891636766109	0.00357534241561582
0.602548720626415	0.271523963277239	0.0195905473258438	0.00376836017861430
0.657898903394070	0.348917956600110	0.0102658827148027	0.00400184910084785
0.713249086161725	0.435782113910769	0.00478032562397342	0.00428927149710307
0.768599268929380	0.531362747661421	0.00187584608611860	0.00468009949653368
0.823949451697035	0.634570677975058	0.000561612295147659	0.00527018469779577
0.879299634464690	0.743896636790539	0.000102621299603370	0.00629136690387969
0.934649817232345	0.857226167095121	5.61406994433906e-06	0.00934122800662754
0.990000000000000	0.971112589947931	0                   0.0155113354600100
/
0.158133822985510	0                   0.478208674454706	0.00412944011632544
0.212924901453142	0.00404414565429243	0.358103079163275	0.00423969684764706
0.267715979920775	0.0152156780605512	0.262473846955448	0.00436390476192248
0.322507058388408	0.0343364135818566	0.187654573999752	0.00450248303642343
0.377298136856040	0.0622282669183165	0.130300179832756	0.00465709961764352
0.432089215323673	0.0995400942545096	0.0873819954867840	0.00483067374381226
0.486880293791306	0.146725614880848	0.0561825074630156	0.00502892853420590
0.541671372258938	0.204031348033391	0.0342896982306285	0.00526838907213257
0.596462450726571	0.271484135639306	0.0195909062935090	0.00555255566487194
0.651253529194204	0.348875390502273	0.0102661032219198	0.00589628910153534
0.706044607661837	0.435739709179556	0.00478044614785588	0.00631940045705904
0.760835686129469	0.531324044860129	0.00187590195102079	0.00689469225387895
0.815626764597102	0.634539598375106	0.000561632328574366	0.00776319798459723
0.870417843064735	0.743876954150580	0.000102625812165951	0.00926598432949765
0.925208921532367	0.857220340179136	5.61439648644212e-06	0.0137525142473117
0.980000000000000	0.971117674167168	0                   0.0228277428030450
/
0.158135405389929	0	0.478203187625126	0.00565096295523402
0.212926378363934	0.00404368010622869	0.358098492718163	0.00580179920023964
0.267717351337938	0.0152140414987534	0.262470109222476	0.00597171900578279
0.322508324311943	0.0343329754227698	0.187651611322407	0.00616129672366227
0.377299297285948	0.0622225022535924	0.130297903464216	0.00637281322250642
0.432090270259953	0.0995316319043294	0.0873803078880980	0.00661026152353350
0.486881243233957	0.146714281363631	0.0561813079723758	0.00688146889881149
0.541672216207962	0.204017204191402	0.0342888880655134	0.00720904050296635
0.596463189181967	0.271467503254841	0.0195903928410757	0.00759776239556562
0.651254162155972	0.348856865255245	0.0102658035647195	0.00806796043585260
0.706045135129976	0.435720154174052	0.00478028976080960	0.00864673100785031
0.760836108103981	0.531304554729405	0.00187583249007350	0.00943364504246502
0.815627081077986	0.634521414717974	0.000561608408724726	0.0106215933397408
0.870418054051991	0.743861288922092	0.000102620636869073	0.0126770105608692
0.925209027025995	0.857207979290488	5.61403812288246e-06	0.0188126109994835
0.980000000000000	0.971107574064920	0	0.0312228159077743
/
0.156520067097476	0                   0.478207369004730	0.00835891833143874
0.210752062624311	0.00404381875764373	0.358101613082896	0.00858205693015410
0.264984058151146	0.0152145506170471	0.262472387785824	0.00883342845385766
0.319216053677981	0.0343340807629367	0.187653233787082	0.00911388080652089
0.373448049204816	0.0622244091561712	0.130299025071665	0.00942678923767298
0.427680044731651	0.0995345075645458	0.0873810564102836	0.00977806107516869
0.481912040258486	0.146718238695538	0.0561817866419664	0.0101792777449370
0.536144035785320	0.204022288064350	0.0342891784399896	0.0106638788747463
0.590376031312155	0.271473679861048	0.0195905575954136	0.0112389467891642
0.644608026838990	0.348864015717277	0.0102658892062026	0.0119345524134935
0.698840022365825	0.435728074178253	0.00478032925799045	0.0127907832859003
0.753072017892660	0.531312963294528	0.00187584780572470	0.0139549551625977
0.807304013419495	0.634529978104964	0.000561612923300881	0.0157124371932855
0.861536008946330	0.743869673245920	0.000102621443567117	0.0187533240204841
0.915768004473165	0.857215971843868	5.61408054942414e-06	0.0278310012842248
0.970000000000000	0.971115520611479	0                   0.0461924290011386
/
0.146838392718782	0	0.478207378210293	0.0274071592156026
0.197715833204197	0.00404432027184302	0.358101606681017	0.0281390259208082
0.248593273689611	0.0152162780578298	0.262472372626129	0.0289635020499488
0.299470714175026	0.0343376474556626	0.187653214865818	0.0298833699672459
0.350348154660440	0.0622302899874729	0.130299005832390	0.0309097023662922
0.401225595145855	0.0995429907001965	0.0873810390263084	0.0320618779732878
0.452103035631269	0.146729381473529	0.0561817722795132	0.0333778888853504
0.502980476116684	0.204035880942404	0.0342891675008650	0.0349674324865487
0.553857916602099	0.271489221463011	0.0195905499377910	0.0368537471296280
0.604735357087513	0.348880703063297	0.0102658843418440	0.0391354852285486
0.655612797572928	0.435744814517964	0.00478032652387903	0.0419441619486958
0.706490238058342	0.531328418626054	0.00187584650757890	0.0457630765420046
0.757367678543757	0.634542663703745	0.000561612447702941	0.0515284936475623
0.808245119029171	0.743878158213138	0.000102621334271448	0.0615046777429110
0.859122559514586	0.857219322917203	5.61407247613480e-06	0.0912899243395751
0.910000000000000	0.971114858208083	0	0.151540035062344
/

--KILLOUGH RELATIVE PERMEABILITY MODEL
EHYSTR
0.1  2  1.0  0.01  KR  RETR  /

-- ROCK OPTIONS
ROCKOPTS
--  default  default 
    PRESSURE NOSTORE ROCKNUM /

-- ROCK COMPRESSIBILITY
--
--    REF. PRES   COMPRESSIBILITY
ROCK
        1       1.4504e-04  /

-- SURFACE DENSITIES OF RESERVOIR FLUIDS (ECLIPSE standard conditions)
DENSITY
--        OIL           WATER    GAS
--          997.065606279569     0       1.78395493184180 / -- "water" phase not present here.
            999.0158    0       1.8683                   / -- (T = 15.56C | P = 1.0135 bar | 1ppm)

-- PVT PROPERTIES OF DRY GAS (NO VAPORIZED OIL)
-- WE WOULD USE PVTG TO SPECIFY THE PROPERTIES OF WET GAS
--
--   PGAS               BGAS                VISGAS (cP)
PVDG
1	                1.04727671835576	0.014941823686468
1.04729412282063	0.999752621211073	0.014942670788828
1.09682497969463	0.954374563747506	0.0149435594856343
1.14869835499703	0.911045630748221	0.0149444918946806
1.20302503608212	0.869673283357706	0.0149454702488564
1.25992104989487	0.830169161443221	0.0149464969030905
1.31950791077289	0.792448894880745	0.0149475743417759
1.38191287996778	0.756431923362417	0.0149487051867157
1.44726923744038	0.722041324340574	0.0149498922056322
1.5157165665104	    0.689203648740958	0.0149511383212858
1.5874010519682	    0.657848764094154	0.0149524466212543
1.66247579228558	0.627909704750277	0.0149538203684289
1.74110112659225	0.59932252885693	0.0149552630122877
1.82344497711643	0.572026181795016	0.0149567782010134
1.90968320782083	0.545962365780681	0.0149583697945297
2	                0.521075415354889	0.0149600418785367
4	                0.257949196201112	0.0149984656365416
7	                0.145142492651127	0.0150613679270848 /

-- PVT PROPERTIES OF LIVE OIL (WITH DISSOLVED GAS)
-- WE WOULD USE PVDO TO SPECIFY THE PROPERTIES OF DEAD OIL
--
-- FOR EACH VALUE OF RS THE SATURATION PRESSURE, FVF AND VISCOSITY
-- ARE SPECIFIED. DATA FOR UNDERSATURATED OIL MAY BE SUPPLIED FOR ANY RS, 
-- BUT MUST BE SUPPLIED FOR THE HIGHEST RS (26.462).
--
--   RS                 POIL                FVFO                VISO
PVTO
    0.74955158875314	1                   1.00309107275277	0.894998265799211 /
    0.785950572164756	1.04729412282063	1.00314397583527	0.895258846405338 /
    0.824050364336449	1.09682497969463	1.00319934970884	0.895531738052989 /
    0.86392940673504	1.14869835499703	1.00325730820898	0.895817512800816 /
    0.905669657688918	1.20302503608212	1.00331797026328	0.896116768377414 /
    0.949356740088139	1.25992104989487	1.00338146010405	0.896430129242884 /
    0.995080094274747	1.31950791077289	1.00344790748837	0.896758247685129 /
    1.04293313619615	1.38191287996778	1.0035174479255     0.897101804951013 /
    1.0930134208814     1.44726923744038	1.00359022291185	0.897461512412353 /
    1.14542281128495	1.5157165665104     1.00366638017345	0.897838112766643 /
    1.20026765252462	1.5874010519682     1.00374607391596	0.898232381272146 /
    1.25765895152029	1.66247579228558	1.00382946508225	0.89864512701681 /
    1.31771256201618	1.74110112659225	1.00391672161744	0.899077194220274 /
    1.38054937494286	1.82344497711643	1.00400801874132	0.899529463567942 /
    1.44629551404454	1.90968320782083	1.00410353922798	0.900002853575798 /
    1.5150825366625     2                   1.00420347369253	0.900498321984387
                     	4                   1.00411105047434	0.900494623981122
                        7                   1.00397253750897	0.900489079812022 /  
/

SOLUTION ===============================================================
-------- THE SOLUTION SECTION DEFINES THE INITIAL STATE OF THE SOLUTION
-------- VARIABLES (PHASE PRESSURES, SATURATIONS AND GAS-OIL RATIOS)
------------------------------------------------------------------------
/

SUMMARY  ===============================================================
-------- THIS SECTION SPECIFIES DATA TO BE WRITTEN TO THE SUMMARY FILES
-------- AND WHICH MAY LATER BE USED WITH THE ECLIPSE GRAPHICS PACKAGE
------------------------------------------------------------------------
/

SCHEDULE ===============================================================
-------- THE SCHEDULE SECTION DEFINES THE OPERATIONS TO BE SIMULATED
------------------------------------------------------------------------
-- CONTROLS ON OUTPUT AT EACH REPORT TIME
/

END     ================================================================