-- =====================================================================
-- This is an ECLIPSE-type input file for fluid properties using the
-- ad-blackoil module in MRST. This file is for a two-phase fluid system 
-- with CO2 (dry gas) and brine (live oil). PVT properties are for 25C of 
-- temperature (i.e approx lab), and four regions are specified for
-- kr-Pc.
-- =====================================================================
RUNSPEC
TITLE
   MODEL 1 RUN

DIMENS
   30000    1    1  / -- This is wrong (unstructured grid), here just to read the file.

OIL

GAS

DISGAS

METRIC

TABDIMS
-- NTSFUN NTPVT NSSFUN NPPVT NTFIP NRPVT
    12       1     16    18     1     16 
-- NRVPVT NTENDP NEOSRR NEOSRS NFLUXR NTHERR (SET TO DEFAULTS)
     20     1      1     NaN     10     1
-- NTROCC(N ROCK tables)
      1 /

--HYSTERESIS OPTION
SATOPTS
        'HYSTER'    /

START
  24 'NOV' 2021  /

GRID    ================================================================

/

PROPS    ===============================================================
-------- THE PROPS SECTION DEFINES THE REL. PERMEABILITIES, CAPILLARY
-------- PRESSURES, AND THE PVT PROPERTIES OF THE RESERVOIR FLUIDS
----------------------------------------------------------------------
-- Units are "metric units", i.e. densities in kg/m^3 and p in bar.
--
-- SGAS KRG KROG(SGAS) PCOG(SGAS)
SGOF
0                   0                   1                   0
0.00100000000000000	6.55819839549387e-05	0.995772337567793	0
0.0707142857142857	0.0246402313243653	0.732955017665532	0
0.141428571428571	0.0646747700888927	0.524022251346697	0
0.212142857142857	0.113733104495930	0.363860419143558	0
0.282857142857143	0.169755950380018	0.244011846349348	0
0.353571428571429	0.231601777373365	0.156887785978330	0
0.424285714285714	0.298522456544337	0.0957526124675437	0
0.495000000000000	0.369981042459555	0.0547066736246513	0
0.565714285714286	0.445569155480805	0.0286675142764787	0
0.636428571428571	0.524963377494397	0.0133490764387823	0
0.707142857142857	0.607899800396337	0.00523830691896963	0
0.777857142857143	0.694158055790557	0.00156830434715335	0
0.848571428571429	0.783550730073096	0.000286570346961824	0
0.919285714285714	0.875916040708684	1.56773104417436e-05	0
0.990000000000000	0.971112589947931	0                   0
/
0	0	1	0
0.00100000000000000	6.65299296751821e-05	0.995729268754360	0.000578730953388992
0.0700000000000000	0.0246421925476969	0.732955035375997	0.000595301196346999
0.140000000000000	0.0646784689753516	0.524022277684701	0.000613993230573444
0.210000000000000	0.113738118745855	0.363860447754456	0.000634979019021882
0.280000000000000	0.169761856251160	0.244011873119316	0.000658790393199225
0.350000000000000	0.231608164653616	0.156887808579699	0.000686153117556505
0.420000000000000	0.298528930426128	0.0957526299389682	0.000718089621364588
0.490000000000000	0.369987222833707	0.0547066859884949	0.000756097808819743
0.560000000000000	0.445574675690331	0.0286675221962728	0.000802483493057575
0.630000000000000	0.524967883065068	0.0133490809202029	0.000861032971704808
0.700000000000000	0.607902947880629	0.00523830905864369	0.000938536516343751
0.770000000000000	0.694159511751120	0.00156830513485971	0.00104883852877081
0.840000000000000	0.783550170198463	0.000286570528781909	0.00122665857617714
0.910000000000000	0.875913149045025	1.56773239316288e-05	0.00160323145269908
0.980000000000000	0.971107058229808	0	0.00342612645662859
/
0	0	1	0
1e-4	2.73559318488727e-06	0.999567891909558	0.00257638290409200
0.0692857142857143	0.0246420096843388	0.732955079565335	0.00265104257950540
0.138571428571428	0.0646781240929561	0.524022343400599	0.00273423091667949
0.207857142857143	0.113737651216926	0.363860519141450	0.00282762566546176
0.277142857142857	0.169761305582251	0.244011939913012	0.00293359302737333
0.346428571428571	0.231607569089575	0.156887864972336	0.00305536197027937
0.415714285714286	0.298528326775435	0.0957526735318911	0.00319748122949968
0.485000000000000	0.369986646534358	0.0547067168375035	0.00336661472160383
0.554285714285714	0.445574160926058	0.0286675419569416	0.00357302029236057
0.623571428571429	0.524967462883710	0.0133490921017910	0.00383354140002985
0.692857142857143	0.607902654301930	0.00523831439734308	0.00417838348902834
0.762142857142857	0.694159375861511	0.00156830710026565	0.00466912795541215
0.831428571428571	0.783550222233515	0.000286570982441266	0.00546020049165901
0.900714285714286	0.875913418461079	1.56773575902595e-05	0.00713524488295504
0.970000000000000	0.971107573766380	0	0.0152409192212485
/
0	0	1	0
0.00100000000000000	6.74681209753872e-05	0.995685314081387	0.00351450876689205
0.0692857142857143	0.0246396989645776	0.732955089823658	0.00361506788499312
0.138571428571428	0.0646737660659384	0.524022358656201	0.00372851777632960
0.207857142857143	0.113731743459209	0.363860535713568	0.00385588727212972
0.277142857142857	0.169754347371079	0.244011955418821	0.00400040347638517
0.346428571428571	0.231600043760925	0.156887878063594	0.00416647017732758
0.415714285714286	0.298520699515304	0.0957526836517624	0.00436029113506835
0.485000000000000	0.369979365210658	0.0547067239989416	0.00459095492251135
0.554285714285714	0.445567657556867	0.0286675465442792	0.00487245175390097
0.623571428571429	0.524962155132932	0.0133490946975395	0.00522775378960709
0.692857142857143	0.607898946841371	0.00523831563669494	0.00569805736838857
0.762142857142857	0.694157661568581	0.00156830755652469	0.00636735226121502
0.831428571428571	0.783550883233122	0.000286571087756010	0.00744625915281649
0.900714285714286	0.875916827030802	1.56773654039445e-05	0.00973082083702922
0.970000000000000	0.971114093124987	0	0.0207865809014985
/
0	0	1	0
0.00100000000000000	6.74661020743722e-05	0.995685312884711	0.00507651332463632
0.0692857142857143	0.0246394279946970	0.732955026532258	0.00522181359885712
0.138571428571428	0.0646732550201645	0.524022264532792	0.00538574164539192
0.207857142857143	0.113731050694960	0.363860433467575	0.00556978459827570
0.277142857142857	0.169753531445756	0.244011859751705	0.00577860614698908
0.346428571428571	0.231599161362621	0.156887797293682	0.00601857055520824
0.415714285714286	0.298519805203655	0.0957526212145942	0.00629864348434385
0.485000000000000	0.369978511514344	0.0547066798145966	0.00663195991045683
0.554285714285714	0.445566895145769	0.0286675182415153	0.00703873908342061
0.623571428571429	0.524961532993522	0.0133490786824008	0.00755218196723336
0.692857142857143	0.607898512436438	0.00523830799019516	0.00823182970607522
0.762142857142857	0.694157460977688	0.00156830474151769	0.00919907621763900
0.831428571428571	0.783550961274790	0.000286570437989850	0.0107583514574617
0.900714285714286	0.875917227368664	1.56773171954394e-05	0.0140603158975518
0.970000000000000	0.971114858360261	0	0.0300425303037083
/
0	0	1	0
1e-4                2.98934423257904e-06	0.999539406152929	0.0255977527733435
0.0650000000000001	0.0246407498329672	0.732955024980394	0.0263394559817691
0.130000000000000	0.0646757479990500	0.524022262224948	0.0271659612573014
0.195000000000000	0.113734430153134	0.363860430960571	0.0280938703390466
0.260000000000000	0.169757511747480	0.244011857406010	0.0291466920931755
0.325000000000000	0.231603465991127	0.156887795313257	0.0303565071900276
0.390000000000000	0.298524168025040	0.0957526196836764	0.0317685085191712
0.455000000000000	0.369982676301828	0.0547066787312261	0.0334489038101832
0.520000000000000	0.445570614739840	0.0286675175475505	0.0354996073264102
0.585000000000000	0.524964568446352	0.0133490782897204	0.0380879628875057
0.650000000000000	0.607900632232708	0.00523830780270816	0.0415140685468358
0.715000000000000	0.694158440349430	0.00156830467249563	0.0463897488623049
0.780000000000000	0.783550581605359	0.000286570422058030	0.0542492539828035
0.845000000000000	0.875915275674913	1.56773160134005e-05	0.0708911860655258
0.910000000000000	0.971111126841457	0                   0.151422131840776
/
0.159747258485175	0                   0.478207373946235	0
0.215097441252830	0.00404544606163587	0.358101599454882	0
0.270447624020485	0.0152201540450353	0.262472364154508	0
0.325797806788140	0.0343456468648937	0.187653206357200	0
0.381147989555795	0.0622434735400879	0.130298998073632	0
0.436498172323450	0.0995619982604295	0.0873810324636402	0
0.491848355091105	0.146754333108055	0.0561817670937750	0
0.547198537858760	0.204066296124838	0.0342891636766109	0
0.602548720626415	0.271523963277239	0.0195905473258438	0
0.657898903394070	0.348917956600110	0.0102658827148027	0
0.713249086161725	0.435782113910769	0.00478032562397342	0
0.768599268929380	0.531362747661421	0.00187584608611860	0
0.823949451697035	0.634570677975058	0.000561612295147659	0
0.879299634464690	0.743896636790539	0.000102621299603370	0
0.934649817232345	0.857226167095121	5.61406994433906e-06	0
0.990000000000000	0.971112589947931	0                   0
/
0.158133844705357	0	0.478206926000906	0.000619429702412636
0.212924921725000	0.00404460037689470	0.358101272070360	0.000635973967673788
0.267715998744643	0.0152172305868006	0.262472130538520	0.000654611836766564
0.322507075764286	0.0343395883626908	0.187653044232099	0.000675406241733114
0.377298152783928	0.0622334429347782	0.130298889196962	0.000698607511275613
0.432089229803571	0.0995474591851674	0.0873809621642983	0.000724653760115481
0.486880306823214	0.146735123607081	0.0561817238247214	0.000754403896204516
0.541671383842857	0.204042689221503	0.0342891385852269	0.000790337987320694
0.596462460862500	0.271496709413260	0.0195905338432338	0.000832981465538925
0.651253537882143	0.348888301275686	0.0102658761655906	0.000884564750590295
0.706044614901786	0.435751780044095	0.00478032285849482	0.000948061276172516
0.760835691921428	0.531333864570730	0.00187584513739800	0.00103439793414841
0.815626768941071	0.634545622163673	0.000561612063787737	0.00116474358900079
0.870417845960714	0.743877706143623	0.000102621270894677	0.00139029480119181
0.925208922980357	0.857214857883089	5.61406964257536e-06	0.00206376749449379
0.980000000000000	0.971107058229808	0	0.00342612645662859
/
0.156521778804317	0	0.478203187625086	0.00275842736854316
0.210753660217363	0.00404368010498557	0.358098492718122	0.00283205567396435
0.264985541630408	0.0152140414940762	0.262470109222437	0.00291499931485897
0.319217423043454	0.0343329754122151	0.187651611322372	0.00300753865189008
0.373449304456499	0.0622225022344638	0.130297903464187	0.00311078705467243
0.427681185869545	0.0995316318737311	0.0873803078880745	0.00322669365277895
0.481913067282590	0.146714281318527	0.0561813079723578	0.00335907920413434
0.536144948695636	0.204017204128683	0.0342888880655006	0.00351897805415626
0.590376830108681	0.271467503171386	0.0195903928410671	0.00370872644142972
0.644608711521727	0.348856865147999	0.0102658035647143	0.00393824610971239
0.698840592934772	0.435720154040101	0.00478028976080676	0.00422076372636517
0.753072474347818	0.531304554566070	0.00187583249007219	0.00460488325200486
0.807304355760864	0.634521414522908	0.000561608408724259	0.00518476125183934
0.861536237173909	0.743861288693411	0.000102620636868969	0.00618808036071509
0.915768118586955	0.857207979026963	5.61403812287492e-06	0.00918307578121120
0.970000000000000	0.971107573766380	0	0.0152409192212485
/
0.156521251544386	0	0.478204502871520	0.00376151534192211
0.210753168108093	0.00404384111329282	0.358099482295481	0.00386192780416449
0.264985084671801	0.0152146113121038	0.262470838211690	0.00397504478379129
0.319217001235508	0.0343341811861191	0.187652135346042	0.00410124842510908
0.373448917799216	0.0622245405592616	0.130298269466785	0.00424205732348082
0.427680834362924	0.0995346528941924	0.0873805549093876	0.00440012978669188
0.481912750926631	0.146718374061738	0.0561814679130096	0.00458067695148392
0.536144667490339	0.204022384130888	0.0342889864440991	0.00479874756763928
0.590376584054047	0.271473703242444	0.0195904495421028	0.00505752828275386
0.644608500617754	0.348863930420899	0.0102658335761880	0.00537055105124275
0.698840417181462	0.435727843119955	0.00478030390030223	0.00575585535732368
0.753072333745170	0.531312549920417	0.00187583811760078	0.00627973167379782
0.807304250308877	0.634529348169756	0.000561610124071583	0.00707059879368512
0.861536166872585	0.743868796844721	0.000102620958166280	0.00843899856041689
0.915768083436292	0.857214825937461	5.61405643490960e-06	0.0125239597239027
0.970000000000000	0.971114093124987	0	0.0207865809014985
/
0.156520044985955	0	0.478207378210293	0.00543341837643471
0.210752041986891	0.00404432027247677	0.358101606681017	0.00557850959051797
0.264984038987828	0.0152162780602143	0.262472372626129	0.00574196045077546
0.319216035988764	0.0343376474610434	0.187653214865818	0.00592432255574289
0.373448032989700	0.0622302899972246	0.130299005832390	0.00612779104634565
0.427680029990637	0.0995429907157953	0.0873810390263084	0.00635620771903627
0.481912026991573	0.146729381496522	0.0561817722795132	0.00661710443645741
0.536144023992509	0.204035880974377	0.0342891675008650	0.00693222850112072
0.590376020993446	0.271489221505554	0.0195905499377910	0.00730618687326789
0.644608017994382	0.348880703117968	0.0102658843418440	0.00775853721061436
0.698840014995318	0.435744814586247	0.00478032652387903	0.00831535215026795
0.753072011996255	0.531328418709316	0.00187584650757890	0.00907244487068044
0.807304008997191	0.634542663803180	0.000561612447702941	0.0102154280964397
0.861536005998127	0.743878158329706	0.000102621334271448	0.0121931880519299
0.915768002999064	0.857219323051532	5.61407247613475e-06	0.0180980578318239
0.970000000000000	0.971114858360261	0	0.0300425303037083
/
0.146838405652823	0                   0.478207341830254	0.0274063383269532
0.197715845275969	0.00404362886725798	0.358101578732263	0.0281378595850064
0.248593284899114	0.0152138906169725	0.262472351585224	0.0289619345885391
0.299470724522259	0.0343327044111226	0.187653199393606	0.0298813425302635
0.350348164145404	0.0622221134158344	0.130298994765182	0.0309071478279455
0.401225603768549	0.0995311498015024	0.0873810313664841	0.0320587154685779
0.452103043391694	0.146713752569524	0.0561817671855016	0.0333740110064468
0.502980483014839	0.204016696745790	0.0342891642764745	0.0349626537367801
0.553857922637984	0.271467105540640	0.0195905480208507	0.0368478587471359
0.604735362261129	0.348856684036795	0.0102658832921127	0.0391282003695332
0.655612801884275	0.435720311429787	0.00478032601016943	0.0419350874339401
0.706490241507420	0.531305182669992	0.00187584629403532	0.0457514279088946
0.757367681130565	0.634522647837310	0.000561612379153869	0.0515126566590638
0.808245120753710	0.743863250513457	0.000102621320556951	0.0614808444635963
0.859122560376855	0.857210754948835	5.61407161468334e-06	0.0912365016990892
0.910000000000000	0.971111126841457	0                   0.151422131840776
/

--KILLOUGH RELATIVE PERMEABILITY MODEL
EHYSTR
0.1  2  1.0  0.01  KR  RETR  /

-- ROCK OPTIONS
ROCKOPTS
--  default  default 
    PRESSURE NOSTORE ROCKNUM /

-- ROCK COMPRESSIBILITY
--
--    REF. PRES   COMPRESSIBILITY
ROCK
        1       1.4504e-04  /

-- SURFACE DENSITIES OF RESERVOIR FLUIDS (T = 25C -> lab | P = 1 bar | 1ppm)
DENSITY
--        OIL           WATER    GAS
          997.065606279569     0       1.78395493184180 / -- "water" phase not present here.

-- PVT PROPERTIES OF DRY GAS (NO VAPORIZED OIL)
-- WE WOULD USE PVTG TO SPECIFY THE PROPERTIES OF WET GAS
--
--   PGAS               BGAS                VISGAS (cP)
PVDG
1                   1.04727671835576	0.014941823686468
1.04729412282063	0.999752621211073	0.014942670788828
1.09682497969463	0.954374563747506	0.0149435594856343
1.14869835499703	0.911045630748221	0.0149444918946806
1.20302503608212	0.869673283357706	0.0149454702488564
1.25992104989487	0.830169161443221	0.0149464969030905
1.31950791077289	0.792448894880745	0.0149475743417759
1.38191287996778	0.756431923362417	0.0149487051867157
1.44726923744038	0.722041324340574	0.0149498922056322
1.5157165665104     0.689203648740958	0.0149511383212858
1.5874010519682     0.657848764094154	0.0149524466212543
1.66247579228558	0.627909704750277	0.0149538203684289
1.74110112659225	0.59932252885693	0.0149552630122877
1.82344497711643	0.572026181795016	0.0149567782010134
1.90968320782083	0.545962365780681	0.0149583697945297
2                   0.521075415354889	0.0149600418785367
4                   0.257949196201112	0.0149984656365416
7                   0.145142492651127	0.0150613679270848 /

-- PVT PROPERTIES OF LIVE OIL (WITH DISSOLVED GAS)
-- WE WOULD USE PVDO TO SPECIFY THE PROPERTIES OF DEAD OIL
--
-- FOR EACH VALUE OF RS THE SATURATION PRESSURE, FVF AND VISCOSITY
-- ARE SPECIFIED. DATA FOR UNDERSATURATED OIL MAY BE SUPPLIED FOR ANY RS, 
-- BUT MUST BE SUPPLIED FOR THE HIGHEST RS (26.462).
--
--   RS                 POIL                FVFO                VISO
PVTO
    0.74955158875314	1                   1.00309107275277	0.894998265799211 /
    0.785950572164756	1.04729412282063	1.00314397583527	0.895258846405338 /
    0.824050364336449	1.09682497969463	1.00319934970884	0.895531738052989 /
    0.86392940673504	1.14869835499703	1.00325730820898	0.895817512800816 /
    0.905669657688918	1.20302503608212	1.00331797026328	0.896116768377414 /
    0.949356740088139	1.25992104989487	1.00338146010405	0.896430129242884 /
    0.995080094274747	1.31950791077289	1.00344790748837	0.896758247685129 /
    1.04293313619615	1.38191287996778	1.0035174479255     0.897101804951013 /
    1.0930134208814     1.44726923744038	1.00359022291185	0.897461512412353 /
    1.14542281128495	1.5157165665104     1.00366638017345	0.897838112766643 /
    1.20026765252462	1.5874010519682     1.00374607391596	0.898232381272146 /
    1.25765895152029	1.66247579228558	1.00382946508225	0.89864512701681 /
    1.31771256201618	1.74110112659225	1.00391672161744	0.899077194220274 /
    1.38054937494286	1.82344497711643	1.00400801874132	0.899529463567942 /
    1.44629551404454	1.90968320782083	1.00410353922798	0.900002853575798 /
    1.5150825366625     2                   1.00420347369253	0.900498321984387
                     	4                   1.00411105047434	0.900494623981122
                        7                   1.00397253750897	0.900489079812022 /    
/

SOLUTION ===============================================================
-------- THE SOLUTION SECTION DEFINES THE INITIAL STATE OF THE SOLUTION
-------- VARIABLES (PHASE PRESSURES, SATURATIONS AND GAS-OIL RATIOS)
------------------------------------------------------------------------
/

SUMMARY  ===============================================================
-------- THIS SECTION SPECIFIES DATA TO BE WRITTEN TO THE SUMMARY FILES
-------- AND WHICH MAY LATER BE USED WITH THE ECLIPSE GRAPHICS PACKAGE
------------------------------------------------------------------------
/

SCHEDULE ===============================================================
-------- THE SCHEDULE SECTION DEFINES THE OPERATIONS TO BE SIMULATED
------------------------------------------------------------------------
-- CONTROLS ON OUTPUT AT EACH REPORT TIME
/

END     ================================================================