-- =====================================================================
-- This is an ECLIPSE-type input file for fluid properties using the
-- ad-blackoil module in MRST. This file is for a two-phase fluid system 
-- with CO2 (dry gas) and brine (live oil). PVT properties are for 80C of 
-- temperature (i.e approx 2km of depth), and two regions are specified for
-- both kr-Pc and rock compressibility (keyword ROCK).
-- File for upscaling of Pc and kr using CL (pc, kr) and VL (kr). Since only
-- incompressible flow is used during upscaling, PVT properties are simplified.
-- =====================================================================
RUNSPEC
TITLE
   UPSCALE

DIMENS
   100    100    1  / 

OIL

GAS

DISGAS

METRIC

TABDIMS
-- NTSFUN NTPVT NSSFUN NPPVT NTFIP NRPVT
    2       1     32    42     1     40 
-- NRVPVT NTENDP NEOSRR NEOSRS NFLUXR NTHERR (SET TO DEFAULTS)
     20     1      1     NaN     10     1
-- NTROCC(N ROCK tables)
      1 /

--HYSTERESIS OPTION
--SATOPTS
--        'HYSTER'    /

START
  13 'JAN' 2022  /

GRID    ================================================================

/

PROPS    ===============================================================
-------- THE PROPS SECTION DEFINES THE REL. PERMEABILITIES, CAPILLARY
-------- PRESSURES, AND THE PVT PROPERTIES OF THE RESERVOIR FLUIDS
----------------------------------------------------------------------
-- Units are "metric units", i.e. densities in kg/m^3 and p in bar.
--
-- SGAS KRG KROG(SGAS) PCOG(SGAS)
SGOF
    0                   0                   1                   0
    0.001               3.26176633309243e-09	0.994778475330511	0.0212733869591033
    0.0289655172413793	5.58489248516685e-05	0.85707939350265	0.0217979032031587
    0.0579310344827586	0.000415707789900001	0.730476050545839	0.0223749849893131
    0.0868965517241379	0.00134506378341158	0.618829291819989	0.0229900075047172
    0.115862068965517	0.00309429352565914	0.520846950893972	0.0236470738496459
    0.144827586206897	0.0059048632056644	0.435304360268083	0.0243509192519265
    0.173793103448276	0.0100118935890285	0.36104331352782	0.0251070399896225
    0.202758620689655	0.0156455923471355	0.296971002042367	0.0259218556212571
    0.231724137931034	0.0230321698451677	0.242058924480207	0.026802915112373
    0.260689655172414	0.0323944746698451	0.195341767215383	0.0277591615068727
    0.289655172413793	0.0439524599517018	0.155916253465874	0.028801275701329
    0.318620689655172	0.0579235397229235	0.122939958732902	0.0299421286320354
    0.347586206896552	0.0745228698253926	0.0956300897871943	0.0311973843903621
    0.376551724137931	0.0939635748398646	0.0732622240628165	0.0325863171259215
    0.40551724137931	0.116456935090125	0.0551690058548494	0.0341329366648231
    0.43448275862069	0.142212543303802	0.0407387951518608	0.0358675696270415
    0.463448275862069	0.171438437684625	0.0294142642379929	0.0378291291238581
    0.492413793103448	0.204341216293123	0.0206909363311142	0.040068454456866
    0.521379310344828	0.24112613637128	0.0141156594242741	0.0426533668257976
    0.550344827586207	0.281997201365868	0.00928500708279526	0.0456765794790652
    0.579310344827586	0.327157237775264	0.00584359609245748	0.0492685637458807
    0.608275862068966	0.376807963484449	0.00348230836150137	0.0536194691530457
    0.637241379310345	0.4311500489106     0.00193640104173167	0.059018637662555
    0.666206896551724	0.490383172022796	0.000983483937524916	0.0659310240386482
    0.695172413793103	0.554706068100677	0.00044133601203936     0.0751589673337507
    0.724137931034483	0.624316574942397	0.000165521476855315	0.0882286715968708
    0.753103448275862	0.699411674110612	4.67470703060943e-05	0.108486838080173
    0.782068965517241	0.780187528708539	7.86758565187849e-06	0.145176716866215
    0.811034482758621	0.866839518100361	3.73962975473878e-07	0.238882426070674
    0.839               0.95625783301558	1.40581485653036e-13	2.6824535135151
    0.84                0.959562269927305	0                   10
/
    0                   0                   1                   0
    0.001               5.53043420343041e-09	0.993736702622569	2.82440482545502
    0.0241379310344828	5.58489248516685e-05	0.85707939350265	3.11447728267539
    0.0482758620689655	0.000415707789899997	0.73047605054584	3.44888247274266
    0.0724137931034483	0.00134506378341158	0.618829291819989	3.81919315223699
    0.096551724137931	0.00309429352565914	0.520846950893972	4.22926453695433
    0.120689655172414	0.00590486320566438	0.435304360268084	4.68336578187015
    0.144827586206897	0.0100118935890285	0.361043313527821	5.18622442628944
    0.168965517241379	0.0156455923471355	0.296971002042367	5.74307561112615
    0.193103448275862	0.0230321698451677	0.242058924480207	6.35971658070149
    0.217241379310345	0.0323944746698451	0.195341767215383	7.0425670364661
    0.241379310344828	0.0439524599517018	0.155916253465874	7.79873597097438
    0.26551724137931	0.0579235397229234	0.122939958732902	8.63609567790338
    0.289655172413793	0.0745228698253925	0.0956300897871945	9.56336370861688
    0.313793103448276	0.0939635748398645	0.0732622240628165	10.5901936285048
    0.337931034482759	0.116456935090125	0.0551690058548494	11.7272755179406
    0.362068965517241	0.142212543303802	0.0407387951518609	12.9864472641475
    0.386206896551724	0.171438437684625	0.0294142642379929	14.3808178026076
    0.410344827586207	0.204341216293123	0.0206909363311142	15.9249035910493
    0.43448275862069	0.24112613637128	0.0141156594242741	17.6347797368124
    0.458620689655172	0.281997201365868	0.00928500708279528	19.5282473509403
    0.482758620689655	0.327157237775264	0.00584359609245748	21.6250188712842
    0.506896551724138	0.376807963484449	0.00348230836150138	23.9469232839721
    0.531034482758621	0.4311500489106     0.00193640104173167	26.5181333797554
    0.555172413793103	0.490383172022796	0.000983483937524921	29.3654174111446
    0.579310344827586	0.554706068100677	0.000441336012039361	32.5184177702748
    0.603448275862069	0.624316574942397	0.000165521476855316	36.0099595887511
    0.627586206896552	0.699411674110612	4.67470703060946e-05	39.8763924722322
    0.651724137931034	0.780187528708539	7.86758565187852e-06	44.1579689274692
    0.675862068965517	0.866839518100361	3.73962975473884e-07	48.8992634215134
    0.699               0.955597840958594	3.13275212721225e-13	53.9213230671804
    0.7                 0.959562269927305	0                   54.149636435817
/

--KILLOUGH RELATIVE PERMEABILITY MODEL
--EHYSTR
--0.1  2  1.0  0.01  KR  RETR  /

-- ROCK OPTIONS
ROCKOPTS
-- default  default 
    PRESSURE NOSTORE ROCKNUM /

-- ROCK COMPRESSIBILITY
--
--    REF. PRES   COMPRESSIBILITY
ROCK
        52.3672       1.4504e-06  /  --- 2 OM smaller than for regular sand

-- SURFACE DENSITIES OF RESERVOIR FLUIDS
DENSITY
--        OIL   WATER           GAS
          1.0689e+03 0           1.8683 / -- "water" phase not present here.

-- PVT PROPERTIES OF DRY GAS
--
--   PGAS               BGAS                VISGAS (cP)
PVDG
--    1.01325     	    0.00611416970178	0.0272440838480145
--    144.601812659013	0.00462615760543596	0.0332610382961455
--    171.579485846458	0.00370244820727555	0.0409986549064827
--    203.590255350094	0.0031690547005429	0.048923283763534
--    241.573122037492	0.00283039214833967	0.0566967666641751
--    1000        	    0.00259100977360035	0.0645264262325208
--    1000000           	0.00240825751937345	0.0726801871629865  /
    1.01325         	0.011           	0.0175576463708481
     86.5563356051968	0.0104370486986144	0.0215905105414439
    102.704739911623	0.00808064501058054	0.0236407159084379
    121.86587528875	    0.00611416970178	0.0272440838480145
    144.601812659013	0.00462615760543596	0.0332610382961455
    171.579485846458	0.00370244820727555	0.0409986549064827
    203.590255350094	0.0031690547005429	0.048923283763534
    241.573122037492	0.00283039214833967	0.0566967666641751
    286.64227170691	    0.00259100977360035	0.0645264262325208
    1000000        	    0.00178875291575152	0.143173910836758  /

-- PVT PROPERTIES 
PVDO
    1                   1.021               0.435284140036624
    86.1773876012754	1.02032584004515	0.438413528810126
    102.289611573468	1.01976896880377	0.439001862419074
    121.414270345046	1.01911199822507	0.4396986757698
    144.114586189742	1.01833783556914	0.440523615055006
    171.059084682693	1.01742684265574	0.441499729671296
    203.041282816128	1.01635661737771	0.442653991436626
    241.00305811931     1.01510183420939	0.444017858561023
    286.062387004609	1.01363419220255	0.445627868386516
    1000000             0.993394186937731	0.469740771115332 /


SOLUTION ===============================================================
-------- THE SOLUTION SECTION DEFINES THE INITIAL STATE OF THE SOLUTION
-------- VARIABLES (PHASE PRESSURES, SATURATIONS AND GAS-OIL RATIOS)
------------------------------------------------------------------------
/

SUMMARY  ===============================================================
-------- THIS SECTION SPECIFIES DATA TO BE WRITTEN TO THE SUMMARY FILES
-------- AND WHICH MAY LATER BE USED WITH THE ECLIPSE GRAPHICS PACKAGE
------------------------------------------------------------------------
/

SCHEDULE ===============================================================
-------- THE SCHEDULE SECTION DEFINES THE OPERATIONS TO BE SIMULATED
------------------------------------------------------------------------
-- CONTROLS ON OUTPUT AT EACH REPORT TIME
/

END     ================================================================