-- =====================================================================
-- This is an ECLIPSE-type input file for fluid properties using the
-- ad-blackoil module in MRST. This file is for a two-phase fluid system 
-- with CO2 (dry gas) and brine (live oil). PVT properties are for 80C of 
-- temperature (i.e approx 2km of depth), and two regions are specified for
-- both kr-Pc and rock compressibility (keyword ROCK).
-- File for upscaling of Pc and kr using CL (pc, kr) and VL (kr). Since only
-- incompressible flow is used during upscaling, PVT properties are simplified.
-- =====================================================================
RUNSPEC
TITLE
   UPSCALE 

DIMENS
   100    100    1  / 

OIL

GAS

METRIC

TABDIMS
-- NTSFUN NTPVT NSSFUN NPPVT NTFIP NRPVT
    2       1     32    42     1     40 
-- NRVPVT NTENDP NEOSRR NEOSRS NFLUXR NTHERR (SET TO DEFAULTS)
     20     1      1     NaN     10     1
-- NTROCC(N ROCK tables)
      1 /

--HYSTERESIS OPTION
--SATOPTS
--        'HYSTER'    /

START
  13 'JAN' 2022  /

GRID    ================================================================

/

PROPS    ===============================================================
-------- THE PROPS SECTION DEFINES THE REL. PERMEABILITIES, CAPILLARY
-------- PRESSURES, AND THE PVT PROPERTIES OF THE RESERVOIR FLUIDS
----------------------------------------------------------------------
-- Units are "metric units", i.e. densities in kg/m^3 and p in bar.
--
-- SGAS KRG KROG(SGAS) PCOG(SGAS)
SGOF
    0                   0                   1                   0
    0.001               3.26176633309243e-09	0.994778475330511	0
    0.0289655172413793	5.58489248516685e-05	0.85707939350265	0
    0.0579310344827586	0.000415707789900001	0.730476050545839	0
    0.0868965517241379	0.00134506378341158	0.618829291819989	0
    0.115862068965517	0.00309429352565914	0.520846950893972	0
    0.144827586206897	0.0059048632056644	0.435304360268083	0
    0.173793103448276	0.0100118935890285	0.36104331352782	0
    0.202758620689655	0.0156455923471355	0.296971002042367	0
    0.231724137931034	0.0230321698451677	0.242058924480207	0
    0.260689655172414	0.0323944746698451	0.195341767215383	0
    0.289655172413793	0.0439524599517018	0.155916253465874	0
    0.318620689655172	0.0579235397229235	0.122939958732902	0
    0.347586206896552	0.0745228698253926	0.0956300897871943	0
    0.376551724137931	0.0939635748398646	0.0732622240628165	0
    0.40551724137931	0.116456935090125	0.0551690058548494	0
    0.43448275862069	0.142212543303802	0.0407387951518608	0
    0.463448275862069	0.171438437684625	0.0294142642379929	0
    0.492413793103448	0.204341216293123	0.0206909363311142	0
    0.521379310344828	0.24112613637128	0.0141156594242741	0
    0.550344827586207	0.281997201365868	0.00928500708279526	0
    0.579310344827586	0.327157237775264	0.00584359609245748	0
    0.608275862068966	0.376807963484449	0.00348230836150137	0
    0.637241379310345	0.4311500489106	0.00193640104173167	0
    0.666206896551724	0.490383172022796	0.000983483937524916	0
    0.695172413793103	0.554706068100677	0.00044133601203936	0
    0.724137931034483	0.624316574942397	0.000165521476855315	0
    0.753103448275862	0.699411674110612	4.67470703060943e-05	0
    0.782068965517241	0.780187528708539	7.86758565187849e-06	0
    0.811034482758621	0.866839518100361	3.73962975473878e-07	0
    0.839               0.95625783301558	1.40581485653036e-13	0
    0.84                0.959562269927305	0                   0
/
0                   0                   1                   0
0.001               5.53043420343041e-09	0.993736702622569	0
0.0241379310344828	5.58489248516685e-05	0.85707939350265	0
0.0482758620689655	0.000415707789899997	0.73047605054584	0
0.0724137931034483	0.00134506378341158	0.618829291819989	0
0.096551724137931	0.00309429352565914	0.520846950893972	0
0.120689655172414	0.00590486320566438	0.435304360268084	0
0.144827586206897	0.0100118935890285	0.361043313527821	0
0.168965517241379	0.0156455923471355	0.296971002042367	0
0.193103448275862	0.0230321698451677	0.242058924480207	0
0.217241379310345	0.0323944746698451	0.195341767215383	0
0.241379310344828	0.0439524599517018	0.155916253465874	0
0.26551724137931	0.0579235397229234	0.122939958732902	0
0.289655172413793	0.0745228698253925	0.0956300897871945	0
0.313793103448276	0.0939635748398645	0.0732622240628165	0
0.337931034482759	0.116456935090125	0.0551690058548494	0
0.362068965517241	0.142212543303802	0.0407387951518609	0
0.386206896551724	0.171438437684625	0.0294142642379929	0
0.410344827586207	0.204341216293123	0.0206909363311142	0
0.43448275862069	0.24112613637128	0.0141156594242741	0
0.458620689655172	0.281997201365868	0.00928500708279528	0
0.482758620689655	0.327157237775264	0.00584359609245748	0
0.506896551724138	0.376807963484449	0.00348230836150138	0
0.531034482758621	0.4311500489106     0.00193640104173167	0
0.555172413793103	0.490383172022796	0.000983483937524921	0
0.579310344827586	0.554706068100677	0.000441336012039361	0
0.603448275862069	0.624316574942397	0.000165521476855316	0
0.627586206896552	0.699411674110612	4.67470703060946e-05	0
0.651724137931034	0.780187528708539	7.86758565187852e-06	0
0.675862068965517	0.866839518100361	3.73962975473884e-07	0
0.699               0.955597840958594	3.13275212721225e-13	0
0.7                 0.959562269927305	0                   0
/

--KILLOUGH RELATIVE PERMEABILITY MODEL
--EHYSTR
--0.1  2  1.0  0.01  KR  RETR  /

-- ROCK OPTIONS
ROCKOPTS
-- default  default 
    PRESSURE NOSTORE ROCKNUM /

-- ROCK COMPRESSIBILITY
--
--    REF. PRES   COMPRESSIBILITY
ROCK
        52.3672       1.4504e-04  /
        52.3672       1.28e-03  /

-- SURFACE DENSITIES OF RESERVOIR FLUIDS
DENSITY
--        OIL   WATER           GAS
          1.0689e+03 0           1.8683 / -- "water" phase not present here.

-- PVT PROPERTIES OF DRY GAS
--
--   PGAS               BGAS                VISGAS (cP)
PVDG
    1.01325	            1.2266979758331	    0.0175576463708481
    1.20228723856933	1.03327101263299	0.0175604877795057
    1.42659225662636	0.870256550414942	0.0175638784491021
    1.69274479623359	0.732872737837587	0.0175679287636528
    2.0085521506699	    0.617089570345539	0.0175727729946874
    2.38327818282891	0.519510674294677	0.0175785751469099
    2.82791507049188	0.437273677902723	0.0175855364924674
    3.35550574982508	0.367966246497624	0.0175939053747189
    3.98152651562861	0.309555319023285	0.0176039900948047
    4.72434100149585	0.260327469995162	0.0176161760320636
    5.60573885689444	0.218838647434374	0.0176309486459639
    6.65157492267099	0.18387181231878	0.0176489247468916
    7.89252765449306	0.154401236836267	0.0176708955405825
    9.36499904174931	0.129562414001914	0.0176978866660803
    11.1121824200436	0.108626695727022	0.0177312431266827
    13.1853295003926	0.0909799150184777	0.0177727512845523
    15.6452537820417	0.0761043646899756	0.0178248170543073
    18.5641144498664	0.0635636031831167	0.0178907310844538
    22.0275330850381	0.052989640682281	0.0179750717974055
    26.1371052803404	0.044072128076508	0.018084332949835
    31.0133808356242	0.0365492295875246	0.018227928674412
    36.7993999541687	0.0301999091691591	0.0184198573430387
    43.6648891703979	0.0248374041590241	0.0186815671398393
    51.8112400918957	0.0203037044118302	0.0190471307659189
    61.4774170016657	0.0164649253083864	0.0195731352809715
    72.9469666136762	0.013207652204268	0.0203588750008604
    86.5563356051968	0.0104370486986144	0.0215905105414439
    102.704739911623	0.00808064501058054	0.0236407159084379
    121.86587528875	    0.00611416970178	0.0272440838480145
    144.601812659013	0.00462615760543596	0.0332610382961455
    171.579485846458	0.00370244820727555	0.0409986549064827
    203.590255350094	0.0031690547005429	0.048923283763534
    241.573122037492	0.00283039214833967	0.0566967666641751
    286.64227170691	    0.00259100977360035	0.0645264262325208
    340.119758507516	0.00240825751937345	0.0726801871629865
    403.574285950029	0.00226122787192969	0.0814155010829432
    478.867223106289	0.00213857109500202	0.0909860973850285
    568.20720583254	    0.00203359001318985	0.101653824586325
    674.214924683541	0.00194206624347135	0.113695953837768
    800	                0.00186120278322422	0.127407226550051
    850	                0.00183472024013086	0.132725003453897
    950	                0.00178875291575152	0.143173910836758  /

-- PVT PROPERTIES 
PVTO
    0.116422988116644	1.01325             1.02349493437851	0.435652096556481 /
    0.156267936519564	1.20228723856933	1.02354769050608	0.435786761207789 /
    0.20325374446855	1.42659225662636	1.023609852055      0.435946152798049 /
    0.258655870646335	1.69274479623359	1.02368308906947	0.436134731406638 /
    0.323971193687301	2.0085521506699     1.0237693585183     0.436357749120342 /
    0.400953854152634	2.38327818282891	1.02387094968099	0.436621378248411 /
    0.491655813484787	2.82791507049188	1.02399053506879	0.436932857726038 /
    0.598472268796886	3.35550574982508	1.02413122681051	0.437300658054313 /
    0.72419180592938	3.98152651562861	1.0242966380005     0.437734664436072 /
    0.872050762641073	4.72434100149585	1.02449094783481	0.438246376444053 /
    1.04579064183945	5.60573885689444	1.02471896835032	0.438849120434691 /
    1.24971646883482	6.65157492267099	1.02498620909107	0.439558267710337 /
    1.48875260078364	7.89252765449306	1.02529893386759	0.440391446728939 /
    1.76849050167103	9.36499904174931	1.02566420069501	0.441368730920742 /
    2.09522016897579	11.1121824200436	1.02608987166194	0.442512774195082 /
    2.47593294947054	13.1853295003926	1.02658457346343	0.443848853125535 /
    2.9182780475537     15.6452537820417	1.02715758108951	0.445404757024711 /
    3.43044766980901	18.5641144498664	1.02781858604405	0.447210443442203 /
    4.02095596304259	22.0275330850381	1.02857729574223	0.449297345761815 /
    4.69826417820158	26.1371052803404	1.02944279165288	0.451697180402116 /
    5.47018842336912	31.0133808356242	1.03042254973599	0.454440053036521 /
    6.34300689628337	36.7993999541687	1.03152099772625	0.45755160688493 /
    7.32016139285995	43.6648891703979	1.03273745104598	0.461048894690355 /
    8.40042591045752	51.8112400918957	1.03406323673366	0.464934598163311 /
    9.57540109494542	61.4774170016657	1.03547779441347	0.469189187262194 /
    10.826211329301     72.9469666136762	1.03694357111515	0.473760678056254 /
    12.1194251045835	86.5563356051968	1.03839974225874	0.478552100999468 /
    13.4029458537981	102.704739911623	1.03975587523948	0.48340909123556 /
    14.6064346235181	121.86587528875     1.04089233843132	0.488122288680899 /
    15.6665017680792	144.601812659013	1.0416976236896     0.492510112691166 /
    16.5919980542594	171.579485846458	1.04216541973422	0.496631436884966 /
    17.4556748655553	203.590255350094	1.04238190665851	0.500757858258693 /
    18.3175007807322	241.573122037492	1.04241126611872	0.505124372654975 /
    19.2137564051234	286.64227170691     1.04227939194706	0.509895312812628 /
    20.1689914509184	340.119758507516	1.04199185252899	0.515204697170334 /
    21.2027413328878	403.574285950029	1.0415443121647     0.521179367185162 /
    22.332455935054     478.867223106289	1.04092772416317	0.527949684185269 /
    23.5747725284418	568.20720583254     1.04013167485828	0.53565461627893 /
    24.9459893595185	674.214924683541    1.0391474318087     0.544443731426187 /
    26.4620415181454   	800                 1.03797152500539	0.554476584183722 
                        850                 1.03665341576321	0.556439783257372 
                        950                 1.03409604835637	0.560314913431941 /
/


SOLUTION ===============================================================
-------- THE SOLUTION SECTION DEFINES THE INITIAL STATE OF THE SOLUTION
-------- VARIABLES (PHASE PRESSURES, SATURATIONS AND GAS-OIL RATIOS)
------------------------------------------------------------------------
/

SUMMARY  ===============================================================
-------- THIS SECTION SPECIFIES DATA TO BE WRITTEN TO THE SUMMARY FILES
-------- AND WHICH MAY LATER BE USED WITH THE ECLIPSE GRAPHICS PACKAGE
------------------------------------------------------------------------
/

SCHEDULE ===============================================================
-------- THE SCHEDULE SECTION DEFINES THE OPERATIONS TO BE SIMULATED
------------------------------------------------------------------------
-- CONTROLS ON OUTPUT AT EACH REPORT TIME
/

END     ================================================================