-- =====================================================================
-- This is an ECLIPSE-type input file for fluid properties using the
-- ad-blackoil module in MRST. This file is for a two-phase fluid system 
-- with CO2 (dry gas) and brine (live oil). PVT properties are for 80C of 
-- temperature (i.e approx 2km of depth), and two regions are specified for
-- both kr-Pc and rock compressibility (keyword ROCK).
-- =====================================================================
RUNSPEC
TITLE
   UPSCALE PC/KR TEST

DIMENS
   100    100    1  / 

OIL

GAS

METRIC

TABDIMS
-- NTSFUN NTPVT NSSFUN NPPVT NTFIP NRPVT
    2       1     32    2     1     2 
-- NRVPVT NTENDP NEOSRR NEOSRS NFLUXR NTHERR (SET TO DEFAULTS)
     20     1      1     NaN     10     1
-- NTROCC(N ROCK tables)
      1 /

--HYSTERESIS OPTION
--SATOPTS
--        'HYSTER'    /

START
  11 'NOV' 2021  /

GRID    ================================================================

/

PROPS    ===============================================================
-------- THE PROPS SECTION DEFINES THE REL. PERMEABILITIES, CAPILLARY
-------- PRESSURES, AND THE PVT PROPERTIES OF THE RESERVOIR FLUIDS
----------------------------------------------------------------------
-- Units are "metric units", i.e. densities in kg/m^3 and p in bar.
--
-- SGAS KRG KROG(SGAS) PCOG(SGAS)
SGOF
    0                   0                       1                   0
    0.001               2.90256520573007e-08	0.996240605283537	0
    0.044567741935484	0.000562646504054865	0.840803267122118	0
    0.0668516129032257	0.00161462955704179	0.767486027263905	0
    0.0891354838709677	0.00341125050914045	0.698241058342275	0
    0.11141935483871	0.00609368004382654	0.632980455814255	0
    0.133703225806451	0.00978928307354233	0.5716150023661	0
    0.155987096774194	0.0146154617296734	0.514054096602443	0
    0.178270967741935	0.0206819556368848	0.460205674823445	0
    0.200554838709677	0.0280923558200039	0.409976124900324	0
    0.222838709677419	0.0369451671737668	0.363270191068181	0
    0.245122580645161	0.0473345897529744	0.319990868215854	0
    0.267406451612903	0.059351114115312	0.280039283951099	0
    0.289690322580645	0.0730819878960099	0.243314566335341	0
    0.311974193548387	0.0886115898834585	0.209713694687365	0
    0.334258064516129	0.10602173563456	0.179131330209483	0
    0.356541935483871	0.125391931146638	0.151459622335086	0
    0.378825806451613	0.146799586281156	0.126587985547798	0
    0.401109677419355	0.170320196434739	0.104402839851443	0
    0.423393548387097	0.196027498765769	0.0847873058790171	0
    0.445677419354839	0.223993607751098	0.0676208425042492	0
    0.467961290322581	0.254289133747727	0.0527788102482383	0
    0.490245161290323	0.286983287430227	0.0401319368857198	0
    0.512529032258064	0.322143972376411	0.0295456509098355	0
    0.534812903225806	0.35983786762171	0.0208792310423905	0
    0.557096774193548	0.40013050165627	0.0139846901050605	0
    0.57938064516129	0.443086319069979	0.00870525720546649	0
    0.601664516129032	0.488768740839592	0.00487321501305779	0
    0.623948387096774	0.537240219084733	0.00230661365291684	0
    0.646232258064516	0.588562286985483	0.000803780720078375	0
    0.668516129032258	0.642795604445955	0.000132574377333768	0
    0.6908              0.7                 0                       0
/
    0                   0                       1                   0
    0.00100000000000000	2.73391725844382e-08	0.995444996214365	1.11074148501519
    0.0367741935483870	0.000321512288031346	0.840803267122119	1.28451355877826
    0.0551612903225807	0.000922645461166740	0.767486027263904	1.38970651235772
    0.0735483870967741	0.00194928600522312	0.698241058342275	1.53558730647261
    0.0919354838709676	0.00348210288218659	0.632980455814255	1.68146810058751
    0.110322580645161	0.00559387604202422	0.571615002366099	1.84372849263812
    0.128709677419355	0.00835169241695621	0.514054096602443	2.01878544557600
    0.147096774193548	0.0118182603639342	0.460205674823445	2.19384239851387
    0.165483870967742	0.0160527747542880	0.409976124900324	2.51631573287312
    0.183870967741935	0.0211115240992953	0.363270191068181	2.86642963874888
    0.202258064516129	0.0270483370016997	0.319990868215854	3.20221139643089
    0.220645161290323	0.0339149223516068	0.280039283951099	3.43562066701473
    0.239032258064516	0.0417611359405771	0.243314566335341	3.66902993759856
    0.257419354838710	0.0506351942191191	0.209713694687365	3.94953055224756
    0.275806451612903	0.0605838489340344	0.179131330209483	4.29964445812332
    0.294193548387097	0.0716525320837932	0.151459622335086	4.64975836399908
    0.312580645161290	0.0838854778749461	0.126587985547798	4.95994699990654
    0.330967741935484	0.0973258265341364	0.104402839851443	5.25170858813634
    0.349354838709677	0.112015713580440	0.0847873058790171	5.54347017636614
    0.367741935483871	0.127996347286342	0.0676208425042492	6.11675610411591
    0.386129032258065	0.145308076427273	0.0527788102482383	6.70027928057550
    0.404516129032258	0.163990449960130	0.0401319368857198	7.31246675342259
    0.422903225806452	0.184082269929378	0.0295456509098356	8.01269456517410
    0.441290322580645	0.205621638640977	0.0208792310423905	8.71292237692561
    0.459677419354839	0.228646000946440	0.0139846901050605	9.44386193480658
    0.478064516129032	0.253192182325702	0.00870525720546649	10.2024420642040
    0.496451612903226	0.279296423336910	0.00487321501305779	10.9610221936015
    0.514838709677419	0.306994410905562	0.00230661365291685	11.8137850111293
    0.533225806451613	0.336321306848847	0.000803780720078375	12.6890697758187
    0.551612903225807	0.367311773969117	0.000132574377333768	13.5438800430885
    0.570000000000000	0.400000000000000	0                       14.1857555371940
/

--KILLOUGH RELATIVE PERMEABILITY MODEL
--EHYSTR
--0.1  2  1.0  0.01  KR  RETR  /

-- ROCK OPTIONS
-- ROCKOPTS
-- default  default 
--    PRESSURE NOSTORE ROCKNUM /

-- ROCK COMPRESSIBILITY
--
--    REF. PRES   COMPRESSIBILITY
ROCK
        52.3672       1.4504e-04  /
--        52.3672       1.28e-03  /

-- SURFACE DENSITIES OF RESERVOIR FLUIDS
DENSITY
--        OIL   WATER           GAS
          1.0689e+03 0           1.8683 / -- "water" phase not present here.

-- PVT PROPERTIES OF DRY GAS
--
--   PGAS               BGAS                VISGAS (cP)
PVDG
    1.01325	            0.0031690547005429	0.048923283763534
    203.590255350094	0.0031690547005429	0.048923283763534  /

-- PVT PROPERTIES 
PVDO
    1                   1.04238190665851	0.500757858258693 
    203.590255350094	1.04238190665851	0.500757858258693 /

SOLUTION ===============================================================
-------- THE SOLUTION SECTION DEFINES THE INITIAL STATE OF THE SOLUTION
-------- VARIABLES (PHASE PRESSURES, SATURATIONS AND GAS-OIL RATIOS)
------------------------------------------------------------------------
/

SUMMARY  ===============================================================
-------- THIS SECTION SPECIFIES DATA TO BE WRITTEN TO THE SUMMARY FILES
-------- AND WHICH MAY LATER BE USED WITH THE ECLIPSE GRAPHICS PACKAGE
------------------------------------------------------------------------
/

SCHEDULE ===============================================================
-------- THE SCHEDULE SECTION DEFINES THE OPERATIONS TO BE SIMULATED
------------------------------------------------------------------------
-- CONTROLS ON OUTPUT AT EACH REPORT TIME
/

END     ================================================================