-- =====================================================================
-- THIS IS THE FIRST SPE COMPARISON PROBLEM,"COMPARISON OF SOLUTIONS TO A
-- THREE-DIMENSIONAL BLACK-OIL RESERVOIR SIMULATION PROBLEM", REPORTED
-- BY AZIS AND ODEH AT THE SPE SYMPOSIUM ON RESERVOIR SIMULATION ,
-- JANUARY 1981. IT IS  A NON SWELLING AND SWELLING STUDY. A REGULAR
-- GRID WITH TWO WELLS (INJECTOR AND PRODUCER)AND A IMPES SOLUTION METHOD
-- IS USED FOR THIS SIMULATION.THE PRODUCTION IS CONTROLLED BY FLOW RATE
-- AND MIN. BHP. OIL RATE, GOR, PRESSURE AND GAS SATURATION ARE TO BE REPORTED.
-- 
-- This has been modified to include only the gas and oil. The required 
-- keywords are maintained to avoid processing errors, but all information
-- within is erased.
--
-- This file is for specifying 2 regions for both kr and rock compressib.
-- using the keyword ROCKTAB.
-- =====================================================================
RUNSPEC
TITLE
   TEST PROBLEM

DIMENS
   1    1    1  / -- This is wrong for an unstructured grid.

OIL

GAS

DISGAS

FIELD

TABDIMS
-- NTSFUN NTPVT NSSFUN NPPVT NTFIP NRPVT
    1       1     16    12     1     12 /

START
  29 'AUG' 2019  /

ROCKCOMP
    REVERS 2 /

GRID    ================================================================
-------- IN THIS SECTION , THE GEOMETRY OF THE  SIMULATION GRID AND THE
-------- ROCK PERMEABILITIES AND POROSITIES ARE DEFINED.
------------------------------------------------------------------------
--  THE X AND Y DIRECTION CELL SIZES ( DX, DY ) AND THE POROSITIES ARE
--  CONSTANT THROUGHOUT THE GRID. THESE ARE SET IN THE FIRST 3 LINES
--  AFTER THE EQUALS KEYWORD. THE CELL THICKNESSES ( DZ ) AND
--  PERMEABILITES ARE THEN SET FOR EACH  LAYER. THE CELL TOP DEPTHS
--  ( TOPS ) ARE NEEDED ONLY IN THE TOP LAYER ( THOUGH THEY COULD BE.
--  SET THROUGHOUT THE GRID ). THE SPECIFIED MULTZ VALUES ACT AS
--  MULTIPLIERS ON THE TRANSMISSIBILITIES BETWEEN THE CURRENT LAYER
--  AND THE LAYER BELOW.

/
PROPS    ===============================================================
-------- THE PROPS SECTION DEFINES THE REL. PERMEABILITIES, CAPILLARY
-------- PRESSURES, AND THE PVT PROPERTIES OF THE RESERVOIR FLUIDS
----------------------------------------------------------------------
-- WATER RELATIVE PERMEABILITY AND CAPILLARY PRESSURE ARE TABULATED AS
-- A FUNCTION OF WATER SATURATION.
-- 
-- Units are "field units", i.e. densities in lb/ft^3 and p in psi.
--
-- Generated with MRST's family_1() function from the original deck.
--  SWAT   KRW   KRO(SWAT)   PCWO(SWAT)
--SWOF
-- 0.120000000000000                   0   1.000000000000000                   0
-- 0.121000000000000   0.000000011363636   1.000000000000000                   0
-- 0.140000000000000   0.000000227272727   0.997000000000000                   0
-- 0.170000000000000   0.000000568181818   0.980000000000000                   0
-- 0.240000000000000   0.000001363636364   0.700000000000000                   0
-- 0.319999999000000   0.000002272727261   0.350000004375000                   0
-- 0.370000000000000   0.000002840909091   0.200000000000000                   0
-- 0.420000000000000   0.000003409090909   0.090000000000000                   0
-- 0.520000000000000   0.000004545454545   0.021000000000000                   0
-- 0.570000000000000   0.000005113636364   0.010000000000000                   0
-- 0.620000000000000   0.000005681818182   0.001000000000000                   0
-- 0.720000000000000   0.000006818181818   0.000100000000000                   0
-- 0.820000000000000   0.000007954545455   0.000000000000000                   0
-- 1.000000000000000   0.000010000000000                   0                   0
--/

-- SGAS KRG KROG(SGAS) PCOG(SGAS)
SGOF
                   0                   0   1.000000000000000                   0
   0.001000000000000                   0   1.000000000000000                   0
   0.020000000000000                   0   0.997000000000000                   0
   0.050000000000000   0.005000000000000   0.980000000000000                   0
   0.120000000000000   0.025000000000000   0.700000000000000                   0
   0.200000000000000   0.075000000000000   0.350000000000000                   0
   0.250000000000000   0.125000000000000   0.200000000000000                   0
   0.300000000000000   0.190000000000000   0.090000000000000                   0
   0.400000000000000   0.410000000000000   0.021000000000000                   0
   0.450000000000000   0.600000000000000   0.010000000000000                   0
   0.500000000000000   0.720000000000000   0.001000000000000                   0
   0.600000000000000   0.870000000000000   0.000100000000000                   0
   0.700000000000000   0.940000000000000                   0                   0
   0.850000000000000   0.980000000000000                   0                   0
   0.880000000000000   0.984000000000000                   0                   0
/
-- PVT PROPERTIES OF WATER
--
--    REF. PRES. REF. FVF  COMPRESSIBILITY  REF VISCOSITY  VISCOSIBILITY
--PVTW
--     4014.7     1.029        3.13E-6           0.31            0 /

-- ROCK COMPRESSIBILITY
--
--    REF. PRES   COMPRESSIBILITY
ROCKTAB
--      P[psi]    PVM(P)   Perm-mult(P)
      0.000145038    0.999         1.0
      0.0145038      1.0           1.0
      1.450377       1.00001       1.0
      145.037738     1.0004        1.0
      1450.377377    1.0043        1.0  / -- i.e. ~incompressible
      0.000145038    0.9756        1.0
      0.0145038      0.9956        1.0
      1.450377       0.997         1.0
      145.037738     1.0391        1.0
      1450.377377    1.4307        1.0  / -- i.e. more compressible

-- SURFACE DENSITIES OF RESERVOIR FLUIDS
--
--        OIL   WATER   GAS
DENSITY
--         49.1   64.79  0.06054  /
--        OIL   WATER    GAS
          49.1    0    0.06054 /

-- PVT PROPERTIES OF DRY GAS (NO VAPOURISED OIL)
-- WE WOULD USE PVTG TO SPECIFY THE PROPERTIES OF WET GAS
--
--   PGAS   BGAS   VISGAS (cP)
PVDG
     14.7 166.666   0.008
    264.7  12.093   0.0096
    514.7   6.274   0.0112
   1014.7   3.197   0.014
   2014.7   1.614   0.0189
   2514.7   1.294   0.0208
   3014.7   1.080   0.0228
   4014.7   0.811   0.0268
   5014.7   0.649   0.0309
   9014.7   0.386   0.047   /

-- PVT PROPERTIES OF LIVE OIL (WITH DISSOLVED GAS)
-- WE WOULD USE PVDO TO SPECIFY THE PROPERTIES OF DEAD OIL
--
-- FOR EACH VALUE OF RS THE SATURATION PRESSURE, FVF AND VISCOSITY
-- ARE SPECIFIED. FOR RS=1.27 AND 1.618, THE FVF AND VISCOSITY OF
-- UNDERSATURATED OIL ARE DEFINED AS A FUNCTION OF PRESSURE. DATA
-- FOR UNDERSATURATED OIL MAY BE SUPPLIED FOR ANY RS, BUT MUST BE
-- SUPPLIED FOR THE HIGHEST RS (1.618).
--
--   RS      POIL  FVFO  VISO
-- PVTO
--     0.001    14.7 1.062  1.04    /
--     0.0905  264.7 1.15   0.975   /
--     0.18    514.7 1.207  0.91    /
--     0.371  1014.7 1.295  0.83    /
--     0.636  2014.7 1.435  0.695   /
--     0.775  2514.7 1.5    0.641   /
--     0.93   3014.7 1.565  0.594   /
--     1.270  4014.7 1.695  0.51
--            5014.7 1.671  0.549
--            9014.7 1.579  0.74    /
--     1.618  5014.7 1.827  0.449
--            9014.7 1.726  0.605   /
-- /
-- Here PVTO is given as three columns for oil p (increasing), FVFO=Bo
-- (decreasing) and viscosity for undersaturated oil, all for the specified
-- value of Rs given at the top of each table (single number). 
PVTO
1.0000000000e-03
1.4700000000e+01 1.0620000000e+00 1.0400000000e+00
1.0147000000e+03 1.0469628319e+00 1.1195294118e+00
5.0147000000e+03 9.8932035398e-01 1.5090196078e+00
/
9.0500000000e-02
2.6470000000e+02 1.1500000000e+00 9.7500000000e-01
1.2647000000e+03 1.1337168142e+00 1.0495588235e+00
5.2647000000e+03 1.0712979351e+00 1.4147058824e+00
/
1.8000000000e-01
5.1470000000e+02 1.2070000000e+00 9.1000000000e-01
1.5147000000e+03 1.1899097345e+00 9.7958823529e-01
5.5147000000e+03 1.1243970501e+00 1.3203921569e+00
/
3.7100000000e-01
1.0147000000e+03 1.2950000000e+00 8.3000000000e-01
2.0147000000e+03 1.2766637168e+00 8.9347058824e-01
6.0147000000e+03 1.2063746313e+00 1.2043137255e+00
/
6.3600000000e-01
2.0147000000e+03 1.4350000000e+00 6.9500000000e-01
3.0147000000e+03 1.4146814159e+00 7.4814705882e-01
7.0147000000e+03 1.3367935103e+00 1.0084313725e+00
/
7.7500000000e-01
2.5147000000e+03 1.5000000000e+00 6.4100000000e-01
3.5147000000e+03 1.4787610619e+00 6.9001764706e-01
7.5147000000e+03 1.3973451327e+00 9.3007843137e-01
/
9.3000000000e-01
3.0147000000e+03 1.5650000000e+00 5.9400000000e-01
4.0147000000e+03 1.5428407080e+00 6.3942352941e-01
8.0147000000e+03 1.4578967552e+00 8.6188235294e-01
/
1.2700000000e+00
4.0147000000e+03 1.6950000000e+00 5.1000000000e-01
5.0147000000e+03 1.6710000000e+00 5.4900000000e-01
9.0147000000e+03 1.5790000000e+00 7.4000000000e-01
/
1.6180000000e+00
5.0147000000e+03 1.8270000000e+00 4.4900000000e-01
9.0147000000e+03 1.7260000000e+00 6.0500000000e-01
/
/


SOLUTION ===============================================================
-------- THE SOLUTION SECTION DEFINES THE INITIAL STATE OF THE SOLUTION
-------- VARIABLES (PHASE PRESSURES, SATURATIONS AND GAS-OIL RATIOS)
------------------------------------------------------------------------
/

SUMMARY  ===============================================================
-------- THIS SECTION SPECIFIES DATA TO BE WRITTEN TO THE SUMMARY FILES
-------- AND WHICH MAY LATER BE USED WITH THE ECLIPSE GRAPHICS PACKAGE
------------------------------------------------------------------------
/

SCHEDULE ===============================================================
-------- THE SCHEDULE SECTION DEFINES THE OPERATIONS TO BE SIMULATED
------------------------------------------------------------------------
-- CONTROLS ON OUTPUT AT EACH REPORT TIME
/

END     ================================================================