-- Copyright (C) 2023 NORCE
-- WIP: Current simulation results for the SPE CSP 11A
-- TODO: To add vaporized water in the gas phase.

----------------------------------------------------------------------------
RUNSPEC
----------------------------------------------------------------------------

DIMENS
280 1 120 /

OIL
GAS
CO2STORE
DISGAS
DIFFUSE
DISPER

METRIC

START
17 'Feb' 2023 /

EQLDIMS
/

WELLDIMS
10 60 10 20 /

TABDIMS
8 1* 101 101 /

UNIFOUT

MESSAGES
1* 1* 10 /

----------------------------------------------------------------------------
GRID
----------------------------------------------------------------------------

INIT

INCLUDE
'CSP11A.GRDECL' /

INCLUDE
'PERM.inc' /

INCLUDE
'PORO.inc' /

COPY
PERMX PERMY /
PERMX PERMZ /
/

----------------------------------------------------------------------------
EDIT
----------------------------------------------------------------------------

INCLUDE
'PORV.inc' /

----------------------------------------------------------------------------
PROPS
----------------------------------------------------------------------------

DIFFC
 18.01528 44.01 1.6e-05 1* 1e-09  /

-- Dispersion coef in [m]
DISPC
  0.0001 /
  0.0001 /
  0.0001 /
  0.0001 /
  0.0001 /
  0.0001 /
  0.0 /
  0.0 /

INCLUDE
'TABLES.inc' /

----------------------------------------------------------------------------
REGIONS
----------------------------------------------------------------------------

INCLUDE
'SATNUM.inc' /

----------------------------------------------------------------------------
SOLUTION
----------------------------------------------------------------------------

RTEMPVD
0   20.0
1.2 20.0 /

RSVD
0   0.0
100 0.0 /

EQUIL
0 1.1 1000 0 0 0 1 1 0 /

BC 
1 280 1 1 1 1 Z- FREE /
/

RPTRST
BASIC=2 DEN KRG KRO/

----------------------------------------------------------------------------
SCHEDULE
----------------------------------------------------------------------------

RPTRST
BASIC=2 DEN KRG KRO/

WELSPECS
'INJE01' 'INJE' 91 1 1* 'GAS' 9e-05/
'INJE02' 'INJE' 170 1 1* 'GAS' 9e-05/
/

COMPDAT
'INJE01' 91 1 91 91 'OPEN' 1* 1* 9e-05 1* 0.0 1* /
'INJE02' 170 1 50 50 'OPEN' 1* 1* 9e-05 1* 0.0 1* /
/

WCONINJE
'INJE01' GAS OPEN
'RATE'  6.926789E-03  1* 100/
'INJE02' GAS SHUT
'RATE'  0.000000E+00  1* 100/
/
TSTEP
15*0.006944444444444444
/
WCONINJE
'INJE01' GAS OPEN
'RATE'  6.926789E-03  1* 100/
'INJE02' GAS OPEN
'RATE'  6.926789E-03  1* 100/
/
TSTEP
15*0.006944444444444444
/
WCONINJE
'INJE01' GAS SHUT
'RATE'  0.000000E+00  1* 100/
'INJE02' GAS SHUT
'RATE'  0.000000E+00  1* 100/
/
TSTEP
42*0.006944444444444444
/
WCONINJE
'INJE01' GAS SHUT
'RATE'  0.000000E+00  1* 100/
'INJE02' GAS SHUT
'RATE'  0.000000E+00  1* 100/
/
TSTEP
72*0.006944444444444444
/
WCONINJE
'INJE01' GAS SHUT
'RATE'  0.000000E+00  1* 100/
'INJE02' GAS SHUT
'RATE'  0.000000E+00  1* 100/
/
TSTEP
144*0.006944444444444444
/
WCONINJE
'INJE01' GAS SHUT
'RATE'  0.000000E+00  1* 100/
'INJE02' GAS SHUT
'RATE'  0.000000E+00  1* 100/
/
TSTEP
144*0.006944444444444444
/
WCONINJE
'INJE01' GAS SHUT
'RATE'  0.000000E+00  1* 100/
'INJE02' GAS SHUT
'RATE'  0.000000E+00  1* 100/
/
TSTEP
144*0.006944444444444444
/
WCONINJE
'INJE01' GAS SHUT
'RATE'  0.000000E+00  1* 100/
'INJE02' GAS SHUT
'RATE'  0.000000E+00  1* 100/
/
TSTEP
144*0.006944444444444444
/


