-- =====================================================================
-- This is an ECLIPSE-type input file for fluid properties using the
-- ad-blackoil module in MRST. This file is for a two-phase fluid system 
-- with CO2 (dry gas) and brine (live oil). PVT properties are for 25C of 
-- temperature, and three regions are specified for kr-Pc.
--
-- See the ECLIPSE reference manual and technical description 
-- (Schlumberger, 2014) for reference. These can be found online.
-- =====================================================================
RUNSPEC
TITLE
   EXAMPLE RUN

DIMENS
   30000    1    1  / 

OIL

GAS

DISGAS

METRIC

TABDIMS
-- NTSFUN NTPVT NSSFUN NPPVT NTFIP NRPVT
    3       1     24    32     1     30 
-- NRVPVT NTENDP NEOSRR NEOSRS NFLUXR NTHERR (SET TO DEFAULTS)
     20     1      1     NaN     10     1
-- NTROCC(N ROCK tables)
      1 /

START
  25 'JUN' 2022  /

GRID    ================================================================

/

PROPS    ===============================================================
-------- THE PROPS SECTION DEFINES THE REL. PERMEABILITIES, CAPILLARY
-------- PRESSURES, AND THE PVT PROPERTIES OF THE RESERVOIR FLUIDS
----------------------------------------------------------------------
-- Units are "metric units", i.e. densities in kg/m^3 and p in bar.
--
-- SGAS KRG KROG(SGAS) PCOG(SGAS)
SGOF
    0                   0                   1                   0
    0.0413043478260870	0.00170604914933837	0.809848512686135	0
    0.0826086956521739	0.00682419659735350	0.649790109152045	0
    0.123913043478261	0.0153544423440454	0.516102630127223	0
    0.165217391304348	0.0272967863894140	0.405384335844128	0
    0.206521739130435	0.0426512287334594	0.314539479567677	0
    0.247826086956522	0.0614177693761815	0.240763881124732	0
    0.289130434782609	0.0835964083175803	0.181530500433583	0
    0.330434782608696	0.109187145557656	0.134575011033439	0
    0.371739130434783	0.138189981096408	0.0978813736139160	0
    0.413043478260870	0.170604914933837	0.0696674095445193	0
    0.454347826086957	0.206431947069943	0.0483703744041357	0
    0.495652173913043	0.245671077504726	0.0326325315105177	0
    0.536956521739130	0.288322306238185	0.0212867254497721	0
    0.578260869565217	0.334385633270321	0.0133419556058464	0
    0.619565217391304	0.383861058601134	0.00796894969001613	0
    0.660869565217391	0.436748582230624	0.00448573727037232	0
    0.702173913043478	0.493048204158790	0.00234322330130829	0
    0.743478260869565	0.552759924385633	0.00111076165300700	0
    0.784782608695652	0.615883742911153	0.000461728640928163	0
    0.826086956521739	0.682419659735350	0.000159096555295453	0
    0.867391304347826	0.752367674858223	4.10071905836125e-05	0
    0.908695652173913	0.825727788279773	6.34537500565151e-06	0
    0.950000000000000	0.902500000000000	0                   0
/
    0                   0                   1                   0
    1e-5                3.16227766016838e-08	0.999950000999990	5.00002500018750
    0.0363636363636364	0.00693427337633158	0.830932796194994	5.09346603271437
    0.0727272727272727	0.0196130869080216	0.685547313087159	5.19237752033936
    0.109090909090909	0.0360315414041355	0.561263697089742	5.29728463363976
    0.145454545454545	0.0554741870106527	0.455696656587044	5.40881864633454
    0.181818181818182	0.0775275332202220	0.366647832053200	5.52770798392567
    0.218181818181818	0.101912589053872	0.292098166170964	5.65479833292457
    0.254545454545455	0.128424540136967	0.230200273950488	5.79107808321159
    0.290909090909091	0.156904695264173	0.179270812848104	5.93771085995354
    0.327272727272727	0.187225381160953	0.137782852885111	6.09607760467025
    0.363636363636364	0.219280977874737	0.104358246766552	6.26783170528009
    0.400000000000000	0.252982212813470	0.0777600000000000	6.45497224367903
    0.436363636363636	0.288252331233084	0.0568846410143370	6.65994284582664
    0.472727272727273	0.325024416813828	0.0407545912785391	6.88576743024685
    0.509090909090909	0.363239452806453	0.0285105354204569	7.13624032148063
    0.545454545454545	0.402844879568725	0.0194037913455986	7.41619848709566
    0.581818181818182	0.443793496085221	0.0127886803559121	7.73192141033858
    0.618181818181818	0.486042606647900	0.00811489726856709	8.09173593712687
    0.654545454545455	0.529553346516583	0.00491988053473744	8.50696309223401
    0.690909090909091	0.574290140991965	0.00282118235838337	8.99346167730627
    0.727272727272727	0.620220265761776	0.00150883881503375	9.57427107756338
    0.763636363636364	0.667313485367686	0.000737739970568329	10.2844168900930
    0.800000000000000	0.715541752799933	0                   11.1803398874989
/
    0                   0                   1                   0
    1e-5                1.77827941003892e-09	0.999950000999990	0.500006250070313
    0.0397727272727273	0.00354221078768655	0.816338321245392	0.526020243935251
    0.0795454545454545	0.0119145294137546	0.660711298672773	0.554583661723402
    0.119318181818182	0.0242234834632585	0.529779503255496	0.586065580874768
    0.159090909090909	0.0400755402938448	0.420479897720676	0.620917206398099
    0.198863636363636	0.0592204780612068	0.330013893695628	0.659685515138225
    0.238636363636364	0.0814777616368468	0.255835408854316	0.703039685800946
    0.278409090909091	0.106707752148767	0.195638924063793	0.751806693317649
    0.318181818181818	0.134797512689800	0.147347540530639	0.807019969843287
    0.357954545454545	0.165652804495575	0.109101036947411	0.869987043343800
    0.397727272727273	0.199193150845120	0.0792439266390795	0.942385309684064
    0.437500000000000	0.235348589801656	0.0563135147094727	1.02640047855933
    0.477272727272727	0.274057430733284	0.0390279551877200	1.12493144039298
    0.517045454545455	0.315264643458214	0.0262743081746937	1.24190158671827
    0.556818181818182	0.358920665046720	0.0170965969894508	1.38274655693342
    0.596590909090909	0.404980492970270	0.0106838653156765	1.55520592876350
    0.636363636363636	0.453402980823878	0.00635823434812575	1.77066283411971
    0.676136363636364	0.504150281200491	0.00356295993906617	2.04652601423829
    0.715909090909091	0.557187397908215	0.00185048974472032	2.41072867470639
    0.755681818181818	0.612481821045948	0.000870520371708167	2.91088648444197
    0.795454545454545	0.670003225955017	0.000358054523489454	3.63481836061539
    0.835227272727273	0.729723222164687	0.000121458146806178	4.76281093139949
    0.875000000000000	0.791615141996917	0                   6.72717132202972
/   

-- ROCK OPTIONS
-- ROCKOPTS
--  default  default 
--    PRESSURE NOSTORE ROCKNUM /

-- ROCK COMPRESSIBILITY
--
--    REF. PRES   COMPRESSIBILITY
ROCK
        1       1.4504e-04  /

-- SURFACE DENSITIES OF RESERVOIR FLUIDS
DENSITY
--        OIL               WATER       GAS
          1068.89254250267     0       1.86829446671386 / -- "water" phase not present here.

-- PVT PROPERTIES OF DRY GAS (NO VAPORIZED OIL)
-- WE WOULD USE PVTG TO SPECIFY THE PROPERTIES OF WET GAS
--
--   PGAS               BGAS                VISGAS (cP)
PVDG
    1                   1.24299819548683	0.0175574477632395
    1.24680437914745	0.996252784693072	0.0175611590600426
    1.55452115986126	0.798350045719629	0.0175658216006267
    1.93818378959239	0.639621474681379	0.0175716899945061
    2.4165360364564     0.512312413712141	0.0175790929529428
    3.01294771262146	0.410203198087345	0.017588458074985
    3.75655640223874	0.328305294887068	0.0176003465984963
    4.68369097282565	0.262617587951746	0.0176155029512876
    5.83964641549241	0.209930902225595	0.0176349266938813
    7.28089672350865	0.167671217157588	0.0176599790078192
    9.07785391899091	0.133773908729703	0.0176925436091032
    11.3183080194587	0.106582875174658	0.0177352753956259
    14.1117160032008	0.0847696164652905	0.0177919942025817
    17.594549310076     0.0672683113953098	0.0178683257323546
    21.9369611289285	0.0532237158470122	0.0179727783038397
    27.3510992007354	0.041949329483918	0.0181186204166587
    34.1014702579733	0.0328937763293788	0.0183273055381762
    42.5178624530077	0.0256137454327216	0.0186350770309653
    53.0114570983989	0.0197521821617813	0.0191066323094803
    66.094916855271     0.0150208445827109	0.0198660207438956
    82.4074317745386	0.0111875758490798	0.0211745212132487
    102.745946810789	0.00807557085228818	0.0236469715733176
    128.104096423343	0.00562321003635243	0.0287343311731969
    159.720748407352	0.004027208011682	0.0376718970622245
    199.140528554995	0.00322401895501406	0.0479100554757699
    248.289283068105	0.00278684783410293	0.0579410956552725
    309.568165424695	0.00250336360361755	0.0681382092185432
    385.970944296152	0.00229685890576439	0.0790679221387461
    481.230263572119	0.00213532786324826	0.0912764532862836
    600                 0.00200315641880212	0.105323615005201
    660                 0.00195283876465699	0.1121110520812
    750                 0.0018905960211619	0.122018771635976 /

-- PVT PROPERTIES OF LIVE OIL (WITH DISSOLVED GAS)
-- WE WOULD USE PVDO TO SPECIFY THE PROPERTIES OF DEAD OIL
--
-- FOR EACH VALUE OF RS THE SATURATION PRESSURE, FVF AND VISCOSITY
-- ARE SPECIFIED. DATA FOR UNDERSATURATED OIL MAY BE SUPPLIED FOR ANY RS, 
-- BUT MUST BE SUPPLIED FOR THE HIGHEST RS.
--
--   RS                 POIL                FVFO                VISO
PVTO
    0.113620588605371	1                   1.02349122228585	0.435642646395317 /
    0.165616741755139	1.24680437914745	1.02356006285262	0.435818429479012 /
    0.229927271376699	1.55452115986126	1.02364511972796	0.436036868267218 /
    0.309454208959093	1.93818378959239	1.02375019053712	0.436308124134974 /
    0.407761345155735	2.4165360364564     1.02387992898714	0.436644725490833 /
    0.529212902749661	3.01294771262146	1.02404001943424	0.437062066864355 /
    0.679134303684238	3.75655640223874	1.02423737647852	0.437578992619692 /
    0.863994281448366	4.68369097282565	1.02448036653922	0.438218462923817 /
    1.09160421918727	5.83964641549241	1.02477904287825	0.439008288751864 /
    1.37132479280807	7.28089672350865	1.02514537633029	0.439981903147495 /
    1.71426041587872	9.07785391899091	1.02559344903514	0.441179103455438 /
    2.13340663393129	11.3183080194587	1.02613955478123	0.442646647457933 /
    2.6436916588509     14.1117160032008	1.02680211292056	0.444438506397285 /
    3.26181674880473	17.594549310076     1.02760124738243	0.44661545800185 /
    4.005746001724      21.9369611289285	1.02855780051649	0.449243528412213 /
    4.89361823240053	27.3510992007354	1.02969143436254	0.452390547708329 /
    5.94174594443016	34.1014702579733	1.03101731077311	0.456119757054449 /
    7.16122622594993	42.5178624530077	1.0325406328879     0.460478996738483 /
    8.55252435780686	53.0114570983989	1.03424808727542	0.465483549525612 /
    10.0972481434995	66.094916855271     1.03609501655308	0.471090352145193 /
    11.7464054383358	82.4074317745386	1.03798726909685	0.477161602137633 /
    13.4058915413144	102.745946810789	1.03975884797403	0.4834204005259 /
    14.9321776864192	128.104096423343	1.04116471134661	0.489440262984148 /
    16.2165218703099	159.720748407352	1.04200548298591	0.494922017408085 /
    17.3451836791803	199.140528554995	1.04236536054084	0.500215368153481 /
    18.4581272094086	248.289283068105	1.04240066276352	0.505858274409605 /
    19.6348791616433	309.568165424695	1.04216942312902	0.512209232037465 /
    20.9246659098684	385.970944296152	1.04167686932328	0.519550412891812 /
    22.3665526779261	481.230263572119	1.04090737366056	0.528157650354247 /
    23.9964312498828	600                 1.03983914897095	0.538326849379946
                    	660                 1.03813180947425	0.540723474817768
                    	750                 1.03564390304476	0.54427536176379 /
/

SOLUTION ===============================================================
-------- THE SOLUTION SECTION DEFINES THE INITIAL STATE OF THE SOLUTION
-------- VARIABLES (PHASE PRESSURES, SATURATIONS AND GAS-OIL RATIOS)
------------------------------------------------------------------------
/

SUMMARY  ===============================================================
-------- THIS SECTION SPECIFIES DATA TO BE WRITTEN TO THE SUMMARY FILES
-------- AND WHICH MAY LATER BE USED WITH THE ECLIPSE GRAPHICS PACKAGE
------------------------------------------------------------------------
/

SCHEDULE ===============================================================
-------- THE SCHEDULE SECTION DEFINES THE OPERATIONS TO BE SIMULATED
------------------------------------------------------------------------
-- CONTROLS ON OUTPUT AT EACH REPORT TIME
/

END     ================================================================