-- =====================================================================
-- This is an ECLIPSE-type input file for fluid properties using the
-- ad-blackoil module in MRST. This file is for a two-phase fluid system 
-- with CO2 (dry gas) and brine (live oil). PVT properties are for 80C of 
-- temperature (i.e approx 2km of depth), and two regions are specified for
-- both kr-Pc and rock compressibility (keyword ROCK).
-- =====================================================================
RUNSPEC
TITLE
   KR HYSTERESIS RUN

DIMENS
   30000    1    1  / -- This is wrong (unstructured grid), here just to read the file.

OIL

GAS

DISGAS

METRIC

TABDIMS
-- NTSFUN NTPVT NSSFUN NPPVT NTFIP NRPVT
    2       1     32    18     1     18 
-- NRVPVT NTENDP NEOSRR NEOSRS NFLUXR NTHERR (SET TO DEFAULTS)
     20     1      1     NaN     10     1
-- NTROCC(N ROCK tables)
      1 /

--HYSTERESIS OPTION
SATOPTS
        'HYSTER'    /

START
  21 'SEP' 2021  /

GRID    ================================================================

/

PROPS    ===============================================================
-------- THE PROPS SECTION DEFINES THE REL. PERMEABILITIES, CAPILLARY
-------- PRESSURES, AND THE PVT PROPERTIES OF THE RESERVOIR FLUIDS
----------------------------------------------------------------------
-- Units are "metric units", i.e. densities in kg/m^3 and p in bar.
--
-- SGAS KRG KROG(SGAS) PCOG(SGAS)
SGOF
    0                   0                       1                   0
    0.001               2.90256520573007e-08	0.996240605283537	0
    0.044567741935484	0.000562646504054865	0.840803267122118	0
    0.0668516129032257	0.00161462955704179	0.767486027263905	0
    0.0891354838709677	0.00341125050914045	0.698241058342275	0
    0.11141935483871	0.00609368004382654	0.632980455814255	0
    0.133703225806451	0.00978928307354233	0.5716150023661	0
    0.155987096774194	0.0146154617296734	0.514054096602443	0
    0.178270967741935	0.0206819556368848	0.460205674823445	0
    0.200554838709677	0.0280923558200039	0.409976124900324	0
    0.222838709677419	0.0369451671737668	0.363270191068181	0
    0.245122580645161	0.0473345897529744	0.319990868215854	0
    0.267406451612903	0.059351114115312	0.280039283951099	0
    0.289690322580645	0.0730819878960099	0.243314566335341	0
    0.311974193548387	0.0886115898834585	0.209713694687365	0
    0.334258064516129	0.10602173563456	0.179131330209483	0
    0.356541935483871	0.125391931146638	0.151459622335086	0
    0.378825806451613	0.146799586281156	0.126587985547798	0
    0.401109677419355	0.170320196434739	0.104402839851443	0
    0.423393548387097	0.196027498765769	0.0847873058790171	0
    0.445677419354839	0.223993607751098	0.0676208425042492	0
    0.467961290322581	0.254289133747727	0.0527788102482383	0
    0.490245161290323	0.286983287430227	0.0401319368857198	0
    0.512529032258064	0.322143972376411	0.0295456509098355	0
    0.534812903225806	0.35983786762171	0.0208792310423905	0
    0.557096774193548	0.40013050165627	0.0139846901050605	0
    0.57938064516129	0.443086319069979	0.00870525720546649	0
    0.601664516129032	0.488768740839592	0.00487321501305779	0
    0.623948387096774	0.537240219084733	0.00230661365291684	0
    0.646232258064516	0.588562286985483	0.000803780720078375	0
    0.668516129032258	0.642795604445955	0.000132574377333768	0
    0.6908              0.7                 0                       0
/ 
    0.180000000000000	0                       0.456308303839253	0
    0.197026666666667	0.000101060810690421	0.417928894597667	0
    0.214053333333333	0.000612718179953766	0.381683922094148	0
    0.231080000000000	0.00175832050205671	0.347264109130844	0
    0.248106666666667	0.00371482838383208	0.314640856796652	0
    0.265133333333333	0.00663597573034934	0.284114638570655	0
    0.282160000000000	0.0106604620568089	0.255724841494899	0
    0.299186666666667	0.0159161374782418	0.228995445603520	0
    0.316213333333333	0.0225225076924692	0.203895903058452	0
    0.333240000000000	0.0305923826143029	0.180528521035948	0
    0.350266666666667	0.0402330333978057	0.159252137638839	0
    0.367293333333333	0.0515470432559064	0.139459693657768	0
    0.384320000000000	0.0646329557846432	0.121118133180972	0
    0.401346666666667	0.0795857830597661	0.104194228401553	0
    0.418373333333333	0.0964974130025126	0.0892063854491030	0
    0.435400000000000	0.115456942192628	0.0755380909570591	0
    0.452426666666667	0.136550952115334	0.0631255487354531	0
    0.469453333333333	0.159863741578290	0.0519320238422437	0
    0.486480000000000	0.185477524550094	0.0422687971330753	0
    0.503506666666667	0.213472600289966	0.0338318605395619	0
    0.520533333333333	0.243927500968081	0.0264326983189621	0
    0.537560000000000	0.276919120778423	0.0200292902400989	0
    0.554586666666667	0.312522829670422	0.0147613073779858	0
    0.571613333333334	0.350812574174110	0.0105454671790964	0
    0.588640000000000	0.391860967301271	0.00711297377913615	0
    0.605666666666667	0.435739369127778	0.00441225717371959	0
    0.622693333333333	0.482517959369560	0.00245116765347448	0
    0.639720000000000	0.532265803034876	0.00124296993907291	0
    0.656746666666667	0.585050910053217	0.000487079113154328	0
    0.673773333333333	0.640940289635222	0.000101297469127810	0
    0.6908          	0.7             	0                       0
/

--KILLOUGH RELATIVE PERMEABILITY MODEL
EHYSTR
0.1  2  1.0  0.01  KR  RETR  /

-- ROCK OPTIONS
ROCKOPTS
--  default  default 
    PRESSURE NOSTORE ROCKNUM /

-- ROCK COMPRESSIBILITY
--
--    REF. PRES   COMPRESSIBILITY
ROCK
        52.3672       1e-03  /

-- SURFACE DENSITIES OF RESERVOIR FLUIDS (T=20C, P=1.012 bar, avg Sept-Oct Bergen)
DENSITY
--        OIL           WATER    GAS
          998.2167736127257     0       1.836748162073762 / -- "water" phase not present here.

-- PVT PROPERTIES OF DRY GAS (NO VAPORIZED OIL)
-- WE WOULD USE PVTG TO SPECIFY THE PROPERTIES OF WET GAS
--
--   PGAS               RV                      BGAS                VISGAS (cP)
PVDG
1                   1.02944472610148	0.0146992258996724
1.04729412282063	0.982717507506452	0.0147000883066421
1.09682497969463	0.93810033425988	0.0147009931023666
1.14869835499703	0.895497916168352	0.0147019424492744
1.20302503608212	0.854819265994597	0.0147029386277227
1.25992104989487	0.815977505132583	0.0147039840431498
1.31950791077289	0.77888967805742	0.0147050812337285
1.38191287996778	0.743476575153765	0.0147062328785591
1.44726923744038	0.709662563544353	0.0147074418064479
1.5157165665104     0.677375425557305	0.0147087110053205
1.5874010519682     0.646546204487234	0.0147100436323206
1.66247579228558	0.617109057320711	0.0147114430246564
1.74110112659225	0.589001114111518	0.0147129127112554
1.82344497711643	0.562162343705366	0.0147144564253006
1.90968320782083	0.536535425527243	0.0147160781177244
2                   0.512065627157566	0.014717781971745
4                   0.253347414351668	0.0147569772882358
7                   0.142425057662382	0.0148213097785787
/

-- PVT PROPERTIES OF LIVE OIL (WITH DISSOLVED GAS)
-- WE WOULD USE PVDO TO SPECIFY THE PROPERTIES OF DEAD OIL
--
-- FOR EACH VALUE OF RS THE SATURATION PRESSURE, FVF AND VISCOSITY
-- ARE SPECIFIED. DATA FOR UNDERSATURATED OIL MAY BE SUPPLIED FOR ANY RS, 
-- BUT MUST BE SUPPLIED FOR THE HIGHEST RS (26.462).
--
--   RS                 POIL                FVFO                VISO
PVTO
    0.853864846867199	1                   1.00210371094949	1.0081626259709 /
    0.894967777647048	1.04729412282063	1.00216421294452	1.00849364883796 /
    0.937990445652018	1.09682497969463	1.00222753946       1.00884029515134 /
    0.983021303545429	1.14869835499703	1.00229382051327	1.00920328951759 /
    1.03015276112585	1.20302503608212	1.00236319192602	1.00958338892167 /
    1.07948135063491	1.25992104989487	1.00243579556556	1.0099813840521 /
    1.13110789777676	1.31950791077289	1.00251177959419	1.01039810066785 /
    1.18513769851658	1.38191287996778	1.00259129872694	1.01083440100709 /
    1.24168070170917	1.44726923744038	1.00267451449755	1.01129118523743 /
    1.30085169759011	1.5157165665104     1.00276159553291	1.01176939294738 /
    1.36277051213972	1.5874010519682     1.00285271783573	1.01227000467802 /
    1.4275622073053     1.66247579228558	1.00294806507558	1.01279404349431 /
    1.49535728703842	1.74110112659225	1.00304782888807	1.01334257659432 /
    1.56629190907114	1.82344497711643	1.00315220918213	1.0139167169551 /
    1.64050810231816	1.90968320782083	1.00326141445508	1.01451762501286 /
    1.71815398974943	2                   1.0033756621153     1.01514651037518
                        4                   1.00328237480887	1.01511594667566
                        7                   1.00314256056971	1.01507012605291 /
/

SOLUTION ===============================================================
-------- THE SOLUTION SECTION DEFINES THE INITIAL STATE OF THE SOLUTION
-------- VARIABLES (PHASE PRESSURES, SATURATIONS AND GAS-OIL RATIOS)
------------------------------------------------------------------------
/

SUMMARY  ===============================================================
-------- THIS SECTION SPECIFIES DATA TO BE WRITTEN TO THE SUMMARY FILES
-------- AND WHICH MAY LATER BE USED WITH THE ECLIPSE GRAPHICS PACKAGE
------------------------------------------------------------------------
/

SCHEDULE ===============================================================
-------- THE SCHEDULE SECTION DEFINES THE OPERATIONS TO BE SIMULATED
------------------------------------------------------------------------
-- CONTROLS ON OUTPUT AT EACH REPORT TIME
/

END     ================================================================