-- =====================================================================
-- This is an ECLIPSE-type input file for fluid properties using the
-- ad-blackoil module in MRST. This file is for a two-phase fluid system 
-- with CO2 (dry gas) and brine (live oil). PVT properties are for 40C of 
-- temperature (i.e approx 1km of depth).
-- =====================================================================
RUNSPEC
TITLE
   CO2 STORAGE IN 1D RADIAL RESERVOIR

DIMENS
   15000    1    1  / -- This is wrong (unstructured grid), here just to read the file.

OIL

GAS

DISGAS

VAPOIL

METRIC

TABDIMS
-- NTSFUN NTPVT NSSFUN NPPVT NTFIP NRPVT
    1       1     32    73     1     71 
-- NRVPVT NTENDP NEOSRR NEOSRS NFLUXR NTHERR
     52     1      1     NaN     10     1
-- NTROCC(N ROCK tables)
--      2 
/

START
  29 'JUL' 2020  /

GRID    ================================================================

/

PROPS    ===============================================================
-------- THE PROPS SECTION DEFINES THE REL. PERMEABILITIES, CAPILLARY
-------- PRESSURES, AND THE PVT PROPERTIES OF THE RESERVOIR FLUIDS
----------------------------------------------------------------------
-- Units are "metric units", i.e. densities in kg/m^3 and p in bar.
--
-- SGAS KRG KROG(SGAS) PCOG(SGAS)
SGOF
    0                   0                       1                   0
    0.00100000000000000	3.87396694214876e-09	0.993197302310293	0
    0.0146666666666666	1.22222222222221e-05	0.903296296296297	0
    0.0293333333333333	9.77777777777777e-05	0.813037037037037	0
    0.0440000000000000	0.000330000000000001	0.729000000000000	0
    0.0586666666666666	0.000782222222222222	0.650962962962963	0
    0.0733333333333334	0.00152777777777778     0.578703703703704	0
    0.0880000000000000	0.00264000000000000     0.512000000000000	0
    0.102666666666667	0.00419222222222223     0.450629629629630	0
    0.117333333333333	0.00625777777777777     0.394370370370371	0
    0.132000000000000	0.00891000000000000     0.343000000000000	0
    0.146666666666667	0.0122222222222222      0.296296296296296	0
    0.161333333333333	0.0162677777777778      0.254037037037037	0
    0.176000000000000	0.0211200000000000      0.216000000000000	0
    0.190666666666667	0.0268522222222222      0.181962962962963	0
    0.205333333333333	0.0335377777777778      0.151703703703704	0
    0.220000000000000	0.0412500000000000      0.125000000000000	0
    0.234666666666667	0.0500622222222222      0.101629629629630	0
    0.249333333333333	0.0600477777777778      0.0813703703703704	0
    0.264000000000000	0.0712800000000000      0.0640000000000000	0
    0.278666666666667	0.0838322222222222      0.0492962962962963	0
    0.293333333333333	0.0977777777777778      0.0370370370370370	0
    0.308000000000000	0.113190000000000       0.0270000000000000	0
    0.322666666666667	0.130142222222222       0.0189629629629630	0
    0.337333333333333	0.148707777777778       0.0127037037037037	0
    0.352000000000000	0.168960000000000       0.00800000000000000	0
    0.366666666666667	0.190972222222222       0.00462962962962964	0
    0.381333333333333	0.214817777777778       0.00237037037037037	0
    0.396000000000000	0.240570000000000       0.00100000000000000	0
    0.410666666666667	0.268302222222222       0.000296296296296296	0
    0.425333333333333	0.298087777777778       3.70370370370374e-05	0
    0.440000000000000	0.330000000000000       0                       0
/


-- ROCK COMPRESSIBILITY
--
--    REF. PRES   COMPRESSIBILITY
ROCK
        105       5e-05  /

-- SURFACE DENSITIES OF RESERVOIR FLUIDS
DENSITY
--        OIL           WATER    GAS
          992.2187    0       1.69749 / -- "water" phase not present here.

-- PVT PROPERTIES OF WET GAS
--
--   PGAS           RV               BGAS                VISGAS (cP)
PVTG
    1	6.13261991414127e-05	1.18890517046955	0.0171270189157609  /
    2	2.97151176574071e-05	0.569331943104451	0.016395687066879   /
    4	1.48034079608583e-05	0.27696001319251	0.0160775925477665  /
    6	9.96039255251837e-06	0.181908274806023	0.0160005733556727  /
    8	7.56451294872229e-06	0.134810973823193	0.0159843709782053  /
    10	6.13670462579831e-06	0.106681538602519	0.0159939799664969  /
    15	4.2493031801763e-06     0.0693040056042542	0.0160710213689186  /
    20	3.31864723466099e-06	0.0506451319395918	0.0161913316203986  /
    30	2.412939937213e-06      0.03194037008954	0.0165293593313307  /
    40	1.98975646987127e-06	0.0224900423253307	0.0170108517324762  /
    50	1.76845001312124e-06	0.0166981973857573	0.0176934746548441  /
    60	1.66242482174764e-06	0.0126790665359801	0.0187032261967978  /
    70	1.6514299265175e-06     0.00956426243307054	0.0203642234871395  /
    80	1.80923433967715e-06	0.00663203223714891	0.0242091333742404  /
    90	2.91612239630006e-06	0.00337525591114271	0.0439849538360229  /
    100	3.25015792945271e-06	0.00301462573113105	0.0509269558269562  /
    105	3.35967225668347e-06	0.0029134813576938	0.0534190238622406  /
    110	3.45107427695745e-06	0.00283395315572592	0.0556039478163019  /
    115	3.52986274522004e-06	0.00276850052159899	0.0575756800058236  /
    120	3.59925809603691e-06	0.00271295382326702	0.0593892021063763  /
    125	3.66133076499563e-06	0.00266476059203196	0.0610798210063919  /
    130	3.71750144257782e-06	0.00262224315160002	0.062671728578523   /
    135	3.76879313283534e-06	0.00258423911771923	0.0641823158410816  /
    140	3.81597038228516e-06	0.00254990965540077	0.0656245561678447  /
    145	3.85962172770896e-06	0.00251862945670045	0.0670084164756681  /
    150	3.90021126342588e-06	0.00248991987853135	0.0683417396947563  /
    155	3.93811235078922e-06	0.00246340637969885	0.0696308214751875  /
    160	3.973630472523e-06      0.00243879036779826	0.0708808010376614  /
    165	4.00701920964833e-06	0.0024158299678102	0.0720959342871253  /
    170	4.03849170620417e-06	0.00239432651915542	0.0732797896942885  /
    175	4.06822908367914e-06	0.00237411486726719	0.0744353919800708  /
    180	4.09638673932011e-06	0.00235505623738913	0.0755653295990573  /
    185	4.12309914275277e-06	0.00233703290759896	0.0766718365418271  /
    190	4.14848354542594e-06	0.00231994416188575	0.077756855551872   /
    195	4.17264288885976e-06	0.00230370317095404	0.0788220876516054  /
    200	4.19566811298368e-06	0.00228823455665577	0.0798690314215962  /
    205	4.21764000880023e-06	0.00227347246776417	0.0808990145003521  /
    210	4.23863072041504e-06	0.00225935904343551	0.0819132191009534  /
    215	4.25870497405906e-06	0.00224584317424977	0.0829127028715997  /
    220	4.27792109224087e-06	0.00223287949425101	0.0838984160936278  /
    225	4.29633183710655e-06	0.00222042755416586	0.0848712159699968  /
    230	4.31398511680247e-06	0.00220845113808218	0.0858318785813594  /
    235	4.33092458102163e-06	0.0021969176947247	0.0867811089566172  /
    240	4.34719012621061e-06	0.00218579786102011	0.0877195496073538  /
    245	4.36281832659591e-06	0.00217506506055108	0.0886477878017451  /
    250	4.37784280388632e-06	0.00216469516320984	0.0895663617971009  /
    260	4.40620218286025e-06	0.00214495809067463	0.0913764566427398  /
    270	4.43248928221163e-06	0.00212643249581266	0.093153346728049   /
    280	4.4568943845475e-06     0.00210898858273084	0.0949000379731408  /
    290	4.47958262247217e-06	0.0020925160565112	0.096619123262161   /
    300	4.50069832970617e-06	0.00207692042102539	0.0983128551973988 
        0                       0.00206478132338229	0.0976960220524653  /
/

-- PVT PROPERTIES OF LIVE OIL (WITH DISSOLVED GAS)
-- WE WOULD USE PVDO TO SPECIFY THE PROPERTIES OF DEAD OIL
--
-- FOR EACH VALUE OF RS THE SATURATION PRESSURE, FVF AND VISCOSITY
-- ARE SPECIFIED. DATA FOR UNDERSATURATED OIL MAY BE SUPPLIED FOR ANY RS, 
-- BUT MUST BE SUPPLIED FOR THE HIGHEST RS.
--
--   RS                 POIL                FVFO                VISO
PVTO
    0.516029435896751	1       1.00715506540384	0.653816339267557  /
    1.06774698855943	2       1.00793180117024	0.656731369879911  /
    2.15461448691049	4       1.00946066321626	0.662511947959959  /
    3.21950021862832	6       1.01095687381693	0.66819395114667   /
    4.26253356235432	8       1.01242062541625	0.673763796588472  /
    5.28384300876265	10      1.01385210913721	0.679216029967471  /
    7.74290754876907	15      1.01729088547571	0.69231932854021   /
    10.0689417481718	20      1.02053206914358	0.704666094695551  /
    14.3293233956701	30      1.02643267182315	0.727130547317892  /
    18.078521406982     40      1.03157404705832	0.746726349867871  /
    21.3268455439407	50      1.03597152913163	0.763575470327335  /
    24.0783790729184	60      1.03963118972409	0.77776577722244   /
    26.3232871161451	70      1.04253839572967	0.789307070486597  /
    28.0055722318447	80      1.0446098420812     0.7979696208754    /
    28.7884728504999	90      1.04534455573117	0.802117410475539  /
    29.250587283176     100     1.04560326366687	0.804661690291357  /
    29.3561162034595	102.5	1.04565325212377	0.805247632287161  /
    29.4588151743175	105     1.04569910548378	0.805819374783568  /
    29.5590195789648	107.5	1.04574132262632	0.806378596196538  /
    29.6569956153342	110     1.04578029951003	0.806926629006241  /
    29.7529596567009	112.5	1.04581635797384	0.807464556517229  /
    29.847090997232     115     1.04584976469741	0.807993276567509  /
    29.93954058918      117.5	1.04588074419869	0.808513545207909  /
    30.0304372344029	120     1.04590948804447	0.809026007659303  /
    30.1198920952751	122.5	1.04593616156088	0.809531220869858  /
    30.2080020594025	125     1.04596090883878	0.810029670342724  /
    30.2948523006452	127.5	1.04598385654357	0.810521782945853  /
    30.3805182629705	130     1.04600511686638	0.811007936836115  /
    30.4650672210815	132.5	1.0460247898457     0.811488469267119  /
    30.5485595249614	135     1.04604296521875	0.811963682816339  /
    30.6310496044824	137.5	1.04605972391597	0.812433850412271  /
    30.7125867892162	140     1.04607513928059	0.812899219437285  /
    30.7932159840457	142.5	1.04608927807364	0.813360015109118  /
    30.8729782309207	145     1.04610220130964	0.813816443292818  /
    30.9519111797516	147.5	1.04611396495714	0.814268692858068  /
    31.0300494860739	150     1.04612462053023	0.814716937670116  /
    31.107425149171     152.5	1.04613421559161	0.815161338282755  /
    31.184067801378     155     1.04614279418288	0.815602043386999  /
    31.2600049570579	157.5	1.04615039719497	0.816039191057933  /
    31.3352622280269	160     1.04615706268862	0.816472909833614  /
    31.4098635108861	162.5	1.046162826173      0.816903319653375  /
    31.483831150685     165     1.04616772084925	0.817330532677615  /
    31.5571860845308	167.5	1.04617177782406	0.81775465400724   /
    31.6299479681193	170     1.04617502629791	0.818175782317544  /
    31.7021352876429	172.5	1.04617749373156	0.818594010418913  /
    31.7737654591272	175     1.04617920599383	0.819009425754559  /
    31.8448549169043	177.5	1.04618018749317	0.819422110843869  /
    31.915419192669     180     1.04618046129533	0.819832143678571  /
    31.9854729863283	182.5	1.0461800492287     0.820239598077814  /
    32.0550302296853	185     1.04617897197907	0.820644544007374  /
    32.124104143833     187.5	1.04617724917502	0.821047047867302  /
    32.1927072910165	190     1.04617489946504	0.821447172751925  /
    32.2608516216104	192.5	1.04617194058747	0.821844978685317  /
    32.3285485167715	195     1.04616838943387	0.822240522835171  /
    32.3958088272516	197.5	1.04616426210683	0.822633859707343  /
    32.4626429087919	200     1.04615957397259	0.823025041323368  /
    32.5950715242817	205     1.04614857335033	0.823801135410665  /
    32.7259084718677	210     1.04613549750007	0.824569177413748  /
    32.8552217492049	215     1.04612044726464	0.825329508972403  /
    32.9830739523167	220     1.04610351545198	0.826082444607255  /
    33.1095228802225	225     1.04608478773455	0.826828274752626  /
    33.2346220534092	230     1.04606434342066	0.8275672683575    /
    33.3584211609       235     1.04604225611947	0.828299675128557  /
    33.480966447748     240     1.04601859431749	0.829025727474436  /
    33.6023010525153	245     1.0459934218806     0.829745642199288  /
    33.7224653025123	250     1.04596679849322	0.830459621984442  /
    33.9594315168424	260     1.04590941896711	0.831870524504358  /
    34.1921406095839	270     1.04584686316084	0.833259819831713  /
    34.4208368922324	280     1.04577949208141	0.834628735933446  /
    34.6457383670473	290     1.04570762760756	0.83597836853899   /
    34.8670406617475	300     1.04563155834306	0.837309700899242  
                    	350     1.04362230976141	0.838515593876056  
                        450     1.03968865583775	0.840893280443477  /
/

SOLUTION ===============================================================
-------- THE SOLUTION SECTION DEFINES THE INITIAL STATE OF THE SOLUTION
-------- VARIABLES (PHASE PRESSURES, SATURATIONS AND GAS-OIL RATIOS)
------------------------------------------------------------------------
/

SUMMARY  ===============================================================
-------- THIS SECTION SPECIFIES DATA TO BE WRITTEN TO THE SUMMARY FILES
-------- AND WHICH MAY LATER BE USED WITH THE ECLIPSE GRAPHICS PACKAGE
------------------------------------------------------------------------
/

SCHEDULE ===============================================================
-------- THE SCHEDULE SECTION DEFINES THE OPERATIONS TO BE SIMULATED
------------------------------------------------------------------------
-- CONTROLS ON OUTPUT AT EACH REPORT TIME
/

END     ================================================================