-- =====================================================================
-- This is an ECLIPSE-type input file for fluid properties using the
-- ad-blackoil module in MRST. This file is for a two-phase fluid system 
-- with CO2 (dry gas) and brine (live oil). PVT properties are for 20C of 
-- temperature (i.e approx lab), and four regions are specified for
-- kr-Pc.
-- =====================================================================
RUNSPEC
TITLE
   MODEL 1 RUN

DIMENS
   30000    1    1  / -- This is wrong (unstructured grid), here just to read the file.

OIL

GAS

DISGAS

METRIC

TABDIMS
-- NTSFUN NTPVT NSSFUN NPPVT NTFIP NRPVT
    12       1     16    18     1     16 
-- NRVPVT NTENDP NEOSRR NEOSRS NFLUXR NTHERR (SET TO DEFAULTS)
     20     1      1     NaN     10     1
-- NTROCC(N ROCK tables)
      1 /

--HYSTERESIS OPTION
SATOPTS
        'HYSTER'    /

START
  9 'OCT' 2022  /

GRID    ================================================================

/

PROPS    ===============================================================
-------- THE PROPS SECTION DEFINES THE REL. PERMEABILITIES, CAPILLARY
-------- PRESSURES, AND THE PVT PROPERTIES OF THE RESERVOIR FLUIDS
----------------------------------------------------------------------
-- Units are "metric units", i.e. densities in kg/m^3 and p in bar.
--
-- SGAS KRG KROG(SGAS) PCOG(SGAS)
SGOF
0	0	1	0
0.00100000000000000	7.48773177823075e-05	0.995350322418977	0
0.0642857142857143	0.0246389526883162	0.732955081961824	0
0.128571428571429	0.0646723586013276	0.524022346964524	0
0.192857142857143	0.113729835532808	0.363860523012932	0
0.257142857142857	0.169752100260417	0.244011943535388	0
0.321428571428572	0.231597613595271	0.156887868030639	0
0.385714285714286	0.298518236561882	0.0957526758960364	0
0.450000000000000	0.369977014143158	0.0547067185105169	0
0.514285714285714	0.445565557929583	0.0286675430286086	0
0.578571428571429	0.524960441863795	0.0133490927081946	0
0.642857142857143	0.607897750651863	0.00523831468687321	0
0.707142857142857	0.694157109370564	0.00156830720685422	0
0.771428571428571	0.783551098465352	0.000286571007044279	0
0.835714285714286	0.875917929951291	1.56773594156467e-05	0
0.900000000000000	0.971116201065686	0	0
/
0	0	1	0
0.00100000000000000	7.72731898435526e-05	0.995244841925402	0
0.0628571428571429	0.0246408746030851	0.732955192768912	0
0.125714285714286	0.0646759833130386	0.524022511750609	0
0.188571428571429	0.113734749141333	0.363860702019614	0
0.251428571428571	0.169757887448716	0.244012111024155	0
0.314285714285714	0.231603872305204	0.156888009438216	0
0.377142857142857	0.298524579831940	0.0957527852076594	0
0.440000000000000	0.369983069416765	0.0547067958660975	0
0.502857142857143	0.445570965833950	0.0286675925795802	0
0.565714285714286	0.524964854965921	0.0133491207466540	0
0.628571428571429	0.607900832325614	0.00523832807396570	0
0.691428571428571	0.694158532800460	0.00156831213522355	0
0.754285714285714	0.783550545779943	0.000286572144622089	0
0.817142857142857	0.875915091470246	1.56774438167504e-05	0
0.880000000000000	0.971110774643915	0	0
/
0	0	1	0
0.00100000000000000	7.72910305382856e-05	0.995244842154135	0.000330000000000000
0.0628571428571429	0.0246429961901046	0.732955203748290	0.000339427315130380
0.125714285714286	0.0646799846684073	0.524022528078527	0.000350078262587059
0.188571428571429	0.113740173473116	0.363860719756588	0.000362035975457846
0.251428571428571	0.169764276406669	0.244012127619873	0.000375603406928069
0.314285714285714	0.231610782175744	0.156888023449666	0.000391193973079142
0.377142857142857	0.298531583565200	0.0957527960388652	0.000409390064225725
0.440000000000000	0.369989755862502	0.0547068035309213	0.000431044884288261
0.502857142857143	0.445576938393383	0.0286675974893686	0.000457471779538895
0.565714285714286	0.524969730218490	0.0133491235248625	0.000490827273017343
0.628571428571429	0.607904238778415	0.00523832940043457	0.000534978663978915
0.691428571428571	0.694160109788627	0.00156831262355442	0.000597810408243895
0.754285714285714	0.783549942510078	0.000286572257339823	0.000699094081469603
0.817142857142857	0.875911966189386	1.56774521797023e-05	0.000913555189492736
0.880000000000000	0.971104793915599	0	0.00195134411859529
/
0	0	1	0
0.00100000000000000	7.72565609297328e-05	0.995244839938608	0.00100000000000000
0.0628571428571429	0.0246388969668844	0.732955097401297	0.00102857055371222
0.125714285714286	0.0646722535109485	0.524022369925241	0.00106084956126682
0.188571428571429	0.113729693074052	0.363860547955095	0.00109708900059451
0.251428571428571	0.169751932475136	0.244011966872684	0.00113820705275353
0.314285714285714	0.231597432140995	0.156887887733872	0.00118545669082589
0.377142857142857	0.298518052658488	0.0957526911271304	0.00124060301861492
0.440000000000000	0.369976838592910	0.0547067292889680	0.00130623193110129
0.502857142857143	0.445565401152520	0.0286675499328636	0.00138632394523465
0.565714285714286	0.524960313933796	0.0133490966149725	0.00148741513356795
0.628571428571429	0.607897661329484	0.00523831655218209	0.00162122673565747
0.691428571428571	0.694157068131924	0.00156830789355514	0.00181165563082850
0.754285714285714	0.783551114527256	0.000286571165550145	0.00211862786803875
0.817142857142857	0.875918012293054	1.56773711757758e-05	0.00276863435848172
0.880000000000000	0.971116358448153	0	0.00591422763266093
/
0	0	1	0
0.00100000000000000	7.97977608114537e-05	0.995134458760433	0.00450000000000000
0.0614285714285714	0.0246421925476969	0.732955035375997	0.00462858930734976
0.122857142857143	0.0646784689753515	0.524022277684702	0.00477392372005386
0.184285714285714	0.113738118745855	0.363860447754456	0.00493709254386070
0.245714285714286	0.169761856251160	0.244011873119316	0.00512223087818098
0.307142857142857	0.231608164653616	0.156887808579699	0.00533498169097498
0.368571428571429	0.298528930426128	0.0957526299389682	0.00558329458022720
0.430000000000000	0.369987222833707	0.0547066859884950	0.00587881605931411
0.491428571428571	0.445574675690331	0.0286675221962729	0.00623947429987338
0.552857142857143	0.524967883065068	0.0133490809202029	0.00669470854512680
0.614285714285714	0.607902947880629	0.00523830905864369	0.00729731455398221
0.675714285714286	0.694159511751120	0.00156830513485971	0.00815493539941631
0.737142857142857	0.783550170198463	0.000286570528781909	0.00953752286120531
0.798571428571429	0.875913149045025	1.56773239316289e-05	0.0124654544702851
0.860000000000000	0.971107058229808	0	0.0266388382554762
/
0                   0                   1                   0
1e-04               4.48560511464131e-06	0.999383653651484	0.0300000000000000
0.0485714285714285	0.0246421925476968	0.732955035375997	0.0308693784492792
0.0971428571428572	0.0646784689753516	0.524022277684701	0.0318386549803256
0.145714285714286	0.113738118745855	0.363860447754457	0.0329268742710756
0.194285714285714	0.169761856251160	0.244011873119316	0.0341616144755105
0.242857142857143	0.231608164653616	0.156887808579699	0.0355805101518024
0.291428571428572	0.298528930426128	0.0957526299389682	0.0372365794297548
0.340000000000000	0.369987222833707	0.0547066859884949	0.0392074962193129
0.388571428571429	0.445574675690331	0.0286675221962729	0.0416128285958528
0.437142857142857	0.524967883065068	0.0133490809202029	0.0446489152448639
0.485714285714286	0.607902947880629	0.00523830905864369	0.0486678660974766
0.534285714285714	0.694159511751120	0.00156830513485971	0.0543875834207780
0.582857142857143	0.783550170198463	0.000286570528781909	0.0636084524076682
0.631428571428572	0.875913149045025	1.56773239316288e-05	0.0831356610046311
0.680000000000000	0.971107058229808	0                   0.177661988340953
/
0.0600000000000000	0	0.748841712215659	0
0.116000000000000	0.00189359180905656	0.560763909954080	0
0.172000000000000	0.00861777765728540	0.411014757581626	0
0.228000000000000	0.0220150113484530	0.293852820187140	0
0.284000000000000	0.0436703853532656	0.204039849562668	0
0.340000000000000	0.0748934180169640	0.136833091532398	0
0.396000000000000	0.116709919755396	0.0879770543012209	0
0.452000000000000	0.169850076808240	0.0536946449240271	0
0.508000000000000	0.234732664226943	0.0306775533727146	0
0.564000000000000	0.311444339093888	0.0160757235174994	0
0.620000000000000	0.399711720663783	0.00748568942138669	0
0.676000000000000	0.498861757563804	0.00293745782538090	0
0.732000000000000	0.607760873759661	0.000879450081324728	0
0.788000000000000	0.724709370818500	0.000160698678389628	0
0.844000000000000	0.847214287582993	8.79129736367341e-06	0
0.900000000000000	0.971116201065686	0	0
/
0.130000000000000	0	0.511653564699761	0
0.180000000000000	0.00372365139611603	0.383147585376678	0
0.230000000000000	0.0142671086270860	0.280830012298706	0
0.280000000000000	0.0326024216321173	0.200777960060268	0
0.330000000000000	0.0596538559683668	0.139412349392278	0
0.380000000000000	0.0961559262364053	0.0934926511415708	0
0.430000000000000	0.142635381809910	0.0601112619908060	0
0.480000000000000	0.199399982115961	0.0366874484454064	0
0.530000000000000	0.266525945370366	0.0209607767397901	0
0.580000000000000	0.343841722605314	0.0109839188754285	0
0.630000000000000	0.430905846355083	0.00511468338098218	0
0.680000000000000	0.526975000556639	0.00200705275295082	0
0.730000000000000	0.630954269136581	0.000600895007727844	0
0.780000000000000	0.741309561497524	0.000109799425248169	0
0.830000000000000	0.855876403190563	6.00677474326645e-06	0
0.880000000000000	0.971110774643915	0	0
/
0.0600000000000000	0	0.743758836940626	0.000338991873322972
0.114666666666667	0.00192636907600456	0.556957727085668	0.000348206277882552
0.169333333333333	0.00872334431866451	0.408225064335261	0.000358376190609514
0.224000000000000	0.0222173210903038	0.291858396180302	0.000369683073195608
0.278666666666667	0.0439799550008214	0.202655039451385	0.000382359318926868
0.333333333333333	0.0753088040823188	0.135904439980502	0.000396707940093258
0.388000000000000	0.117219243436401	0.0873799969474891	0.000413130442236527
0.442666666666667	0.170432637790753	0.0533302596439039	0.000432166025298894
0.497333333333333	0.235360644046041	0.0304693769507041	0.000455149416016870
0.552000000000000	0.312084600507224	0.0159666399386856	0.000483549710803863
0.606666666666667	0.400327720137497	0.00743489749699322	0.000519592573189276
0.661333333333333	0.499415603185678	0.00291752803659207	0.000567727330686723
0.716000000000000	0.608215587999002	0.000873483834174633	0.000637403116868490
0.770666666666667	0.725031478402153	0.000159608633093797	0.000754983945984723
0.825333333333333	0.847377031832284	8.73167813250131e-06	0.00107079593632645
0.880000000000000	0.971104793915599	0	0.00195134411859529
/
0.0800000000000000	0	0.670619467386714	0.00103737391940893
0.133333333333333	0.00242646933716274	0.502187840051305	0.00106524222057927
0.186666666666667	0.0103121232917316	0.368081137218551	0.00109599083576640
0.240000000000000	0.0252426233649453	0.263157662091322	0.00113073104327008
0.293333333333333	0.0485940194900716	0.182726342657454	0.00116970681146844
0.346666666666667	0.0814902726237544	0.122539842590464	0.00121386540514146
0.400000000000000	0.124794893592195	0.0787871894712847	0.00126446807770087
0.453333333333333	0.179100213826657	0.0480858371362333	0.00132322114622048
0.506666666666667	0.244713009772514	0.0274730542178982	0.00139245068392152
0.560000000000000	0.321635392866115	0.0143964949803477	0.00147822502553765
0.613333333333333	0.409538815738349	0.00670375399570924	0.00158878755939335
0.666666666666667	0.507726954042543	0.00263061887484532	0.00173663818727628
0.720000000000000	0.615078449770273	0.000787585153599865	0.00195118846592407
0.773333333333333	0.729947137751420	0.000143912554648612	0.00231559953180935
0.826666666666667	0.849946497326623	7.87298516844546e-06	0.00332282626725184
0.880000000000000	0.971116358448153	0	0.00591422763266093
/
0.100000000000000	0	0.595587545607089	0.00471984579904768
0.150666666666667	0.00299850168181131	0.446000771036006	0.00484779239687804
0.201333333333333	0.0120822711288387	0.326898510912417	0.00498847201958679
0.252000000000000	0.0285653248615039	0.233714339887421	0.00514400072879246
0.302666666666667	0.0536161462840465	0.162282040247994	0.00531947891856984
0.353333333333333	0.0881774052259145	0.108829483553155	0.00552169758444370
0.404000000000000	0.132954838958087	0.0699720835926951	0.00575373487514244
0.454666666666667	0.188406925658015	0.0427057467815051	0.00602363851560070
0.505333333333333	0.254731641634187	0.0243992241316934	0.00634251957089198
0.556000000000000	0.331848845019715	0.0127857370032295	0.00672553955023103
0.606666666666667	0.419376172605373	0.00595370038303252	0.00722257272342650
0.657333333333333	0.516594431135094	0.00233628987907998	0.00789831396814688
0.708000000000000	0.622393955231054	0.000699465299367155	0.00888159764677518
0.758666666666667	0.735180715907574	0.000127810676792927	0.0105634337815961
0.809333333333333	0.852672558673984	6.99209856128767e-06	0.0153527671937872
0.860000000000000	0.971107058229808	0	0.0266388382554762
/
0.140000000000000	0                   0.380455056408333	0.0327988484721639
0.176000000000000	0.00511044058115063	0.284900599003802	0.0336967711044291
0.212000000000000	0.0183072000131359	0.208819328621474	0.0346790940750993
0.248000000000000	0.0399142340290260	0.149294260803708	0.0357558586635856
0.284000000000000	0.0704324711508281	0.103664059519036	0.0369832982460679
0.320000000000000	0.110248933189679	0.0695191288157327	0.0383959422471419
0.356000000000000	0.159597416403346	0.0446974306407501	0.0399998410021731
0.392000000000000	0.218541891921118	0.0272799816258014	0.0418271405946066
0.428000000000000	0.286963255224080	0.0155859676076351	0.0440774165815206
0.464000000000000	0.364544444975552	0.00816739424567291	0.0468711586574851
0.500000000000000	0.450751012758980	0.00380316115031602	0.0503501358984476
0.536000000000000	0.544803378537569	0.00149239738857463	0.0547130258556094
0.572000000000000	0.645633471181476	0.000446811072342270	0.0615473169870692
0.608000000000000	0.751807816166629	8.16441153068023e-05	0.0737166545049196
0.644000000000000	0.861357931304969	4.46647897889770e-06	0.111584076892443
0.680000000000000	0.971107058229808	0                   0.177661988340953
/

--KILLOUGH RELATIVE PERMEABILITY MODEL
EHYSTR
0.1  2  1.0  0.01  KR  RETR  /

-- ROCK OPTIONS
ROCKOPTS
--  default  default 
    PRESSURE NOSTORE ROCKNUM /

-- ROCK COMPRESSIBILITY
--
--    REF. PRES   COMPRESSIBILITY
ROCK
        1       1.4504e-04  /

-- SURFACE DENSITIES OF RESERVOIR FLUIDS (ECLIPSE standard conditions)
DENSITY
--        OIL           WATER    GAS
--          997.065606279569     0       1.78395493184180 / -- "water" phase not present here.
          999.0158    0       1.8683 / -- (T = 15.56C | P = 1.0135 bar | 1ppm)

-- PVT PROPERTIES OF DRY GAS (NO VAPORIZED OIL)
-- WE WOULD USE PVTG TO SPECIFY THE PROPERTIES OF WET GAS
--
--   PGAS               BGAS                VISGAS (cP)
PVDG
1	                1.02944472610148	0.0146992258996724
1.04729412282063	0.982717507506452	0.0147000883066421
1.09682497969463	0.93810033425988	0.0147009931023666
1.14869835499703	0.895497916168352	0.0147019424492744
1.20302503608212	0.854819265994597	0.0147029386277227
1.25992104989487	0.815977505132583	0.0147039840431498
1.31950791077289	0.77888967805742	0.0147050812337285
1.38191287996778	0.743476575153765	0.0147062328785591
1.44726923744038	0.709662563544353	0.0147074418064479
1.5157165665104	    0.677375425557305	0.0147087110053205
1.5874010519682	    646546204487234	    0.0147100436323206
1.66247579228558	0.617109057320711	0.0147114430246564
1.74110112659225	0.589001114111518	0.0147129127112554
1.82344497711643	0.562162343705366	0.0147144564253006
1.90968320782083	0.536535425527243	0.0147160781177244
2	                0.512065627157566	0.014717781971745
4	                0.253347414351668	0.0147569772882358
7	                0.142425057662382	0.0148213097785787 /

-- PVT PROPERTIES OF LIVE OIL (WITH DISSOLVED GAS)
-- WE WOULD USE PVDO TO SPECIFY THE PROPERTIES OF DEAD OIL
--
-- FOR EACH VALUE OF RS THE SATURATION PRESSURE, FVF AND VISCOSITY
-- ARE SPECIFIED. DATA FOR UNDERSATURATED OIL MAY BE SUPPLIED FOR ANY RS, 
-- BUT MUST BE SUPPLIED FOR THE HIGHEST RS (26.462).
--
--   RS                 POIL                FVFO                VISO
PVTO
0.853867921464653	1	                1.00210370911429	1.0081613784987 /
0.894971005485846	1.04729412282063	1.00216421129071	1.00849240240967 /
0.937993834146373	1.09682497969463	1.00222753799645	1.00883904981809 /
0.983024860462936	1.14869835499703	1.00229381924926	1.00920204533297 /
1.03015649460384	1.20302503608212	1.00236319087131	1.00958214594181 /
1.07948526919754	1.25992104989487	1.00243579473036	1.00998014233581 /
1.13111201035281	1.31950791077289	1.0025117789892	    1.01039686027674 /
1.185142014458	    1.38191287996778	1.00259129836338	1.01083316200567 /
1.24168523081049	1.44726923744038	1.00267451438717	1.0112899476933 /
1.30085645010859	1.5157165665104	    1.00276159568803	1.01176815693128 /
1.36277549881638	1.5874010519682	    1.00285271826924	1.01226877026405 /
1.42756743938679	1.66247579228558	1.002948065801	    1.01279281076003 /
1.49536277629984	1.74110112659225	1.00304782991956	1.01334134562093 /
1.56629766783975	1.82344497711643	1.00315221053452	1.01391548782757 /
1.64051414349803	1.90968320782083	1.00326141614389	1.01451639782012 /
1.71816032684713	2	                1.0033756641568	    1.01514528521025
                	4	                1.00328237668945	1.01511472154762
	                7	                1.00314256220893	1.01506890098018 /    
/

SOLUTION ===============================================================
-------- THE SOLUTION SECTION DEFINES THE INITIAL STATE OF THE SOLUTION
-------- VARIABLES (PHASE PRESSURES, SATURATIONS AND GAS-OIL RATIOS)
------------------------------------------------------------------------
/

SUMMARY  ===============================================================
-------- THIS SECTION SPECIFIES DATA TO BE WRITTEN TO THE SUMMARY FILES
-------- AND WHICH MAY LATER BE USED WITH THE ECLIPSE GRAPHICS PACKAGE
------------------------------------------------------------------------
/

SCHEDULE ===============================================================
-------- THE SCHEDULE SECTION DEFINES THE OPERATIONS TO BE SIMULATED
------------------------------------------------------------------------
-- CONTROLS ON OUTPUT AT EACH REPORT TIME
/

END     ================================================================