-- =====================================================================
-- This is an ECLIPSE-type input file for fluid properties using the
-- ad-blackoil module in MRST. This file is for a two-phase fluid system 
-- with CO2 (dry gas) and brine (live oil). PVT properties are for 25C of 
-- temperature (i.e approx lab), and four regions are specified for
-- kr-Pc.
-- =====================================================================
RUNSPEC
TITLE
   MODEL 1 RUN

DIMENS
   30000    1    1  / -- This is wrong (unstructured grid), here just to read the file.

OIL

GAS

DISGAS

METRIC

TABDIMS
-- NTSFUN NTPVT NSSFUN NPPVT NTFIP NRPVT
    12       1     16    18     1     16 
-- NRVPVT NTENDP NEOSRR NEOSRS NFLUXR NTHERR (SET TO DEFAULTS)
     20     1      1     NaN     10     1
-- NTROCC(N ROCK tables)
      1 /

--HYSTERESIS OPTION
SATOPTS
        'HYSTER'    /

START
  24 'NOV' 2021  /

GRID    ================================================================

/

PROPS    ===============================================================
-------- THE PROPS SECTION DEFINES THE REL. PERMEABILITIES, CAPILLARY
-------- PRESSURES, AND THE PVT PROPERTIES OF THE RESERVOIR FLUIDS
----------------------------------------------------------------------
-- Units are "metric units", i.e. densities in kg/m^3 and p in bar.
--
-- SGAS KRG KROG(SGAS) PCOG(SGAS)
SGOF
0                   0                   1                   0
0.00100000000000000	6.55723630795051e-05	0.995772338254163	0
0.0707142857142857	0.0246389068665612	0.732955054712851	0
0.141428571428571	0.0646722721828122	0.524022306441383	0
0.212142857142857	0.113729718386912	0.363860478992758	0
0.282857142857143	0.169751962290342	0.244011902347631	0
0.353571428571429	0.231597464388095	0.156887833256605	0
0.424285714285714	0.298518085344729	0.0957526490148348	0
0.495000000000000	0.369976869799687	0.0547066994877401	0
0.565714285714286	0.445565429029103	0.0286675308433612	0
0.636428571428571	0.524960336690923	0.0133490858131636	0
0.707142857142857	0.607897677233537	0.00523831139480962	0
0.777857142857143	0.694157075499797	0.00156830599490328	0
0.848571428571429	0.783551111721894	0.000286570727299054	0
0.919285714285714	0.875917997719581	1.56773386603325e-05	0
0.990000000000000	0.971116330550492	0                   0
/
0	0	1	0
0.00100000000000000	6.55857505160152e-05	0.995772337703314	0.000514332425071077
0.0707142857142857	0.0246407498329671	0.732955024980395	0.000529051402358914
0.141428571428571	0.0646757479990500	0.524022262224948	0.000545652495995021
0.212142857142857	0.113734430153134	0.363860430960571	0.000564290375277669
0.282857142857143	0.169757511747480	0.244011857406010	0.000585437236695057
0.353571428571429	0.231603465991127	0.156887795313257	0.000609737449046733
0.424285714285714	0.298524168025040	0.0957526196836764	0.000638098751718783
0.495000000000000	0.369982676301828	0.0547066787312260	0.000671850985851580
0.565714285714286	0.445570614739840	0.0286675175475505	0.000713041190077256
0.636428571428571	0.524964568446352	0.0133490782897203	0.000765030613865997
0.707142857142857	0.607900632232708	0.00523830780270816	0.000833846993557094
0.777857142857143	0.694158440349430	0.00156830467249563	0.000931779369614447
0.848571428571429	0.783550581605359	0.000286570422058030	0.00108964452099513
0.919285714285714	0.875915275674913	1.56773160134005e-05	0.00142391252988719
0.990000000000000	0.971111126841457	0	0.00304144820811741
/
0	0	1	0
0.00100000000000000	6.74689726463010e-05	0.995685329615684	0.00463887372818549
0.0692857142857143	0.0246398132704884	0.732955911422465	0.00477165370143951
0.138571428571428	0.0646739816439611	0.524023580492520	0.00492145651291539
0.207857142857143	0.113732035690992	0.363861862991849	0.00508964121946426
0.277142857142857	0.169754691554142	0.244013197296174	0.00528046974100563
0.346428571428571	0.231600415981469	0.156888926557736	0.00549975807886176
0.415714285714286	0.298521076757484	0.0957534941648148	0.00575569954344872
0.485000000000000	0.369979725315431	0.0547072975679912	0.00606029761526028
0.554285714285714	0.445567979149351	0.0286679139506485	0.00643202982298245
0.623571428571429	0.524962417548411	0.0133493025949987	0.00690123721796026
0.692857142857143	0.607899130057910	0.00523841489844944	0.00752233226453078
0.762142857142857	0.694157746147771	0.00156834409915169	0.00840625281055833
0.831428571428571	0.783550850268530	0.000286579522634072	0.00983120857349265
0.900714285714286	0.875916658103193	1.56779912216350e-05	0.0128487626731474
0.970000000000000	0.971113770263310	0	0.0274547221729460
/
0	0	1	0
1e-4	            2.73508192558196e-06	0.999567891805998	0.00454446657969805
0.0692857142857143	0.0246407498620600	0.732955024980395	0.00467615624678288
0.138571428571428	0.0646757480527102	0.524022262224948	0.00482288926244786
0.207857142857143	0.113734430224145	0.363860430960571	0.00498762492942793
0.277142857142857	0.169757511828739	0.244011857406010	0.00517453687725732
0.346428571428571	0.231603466075820	0.156887795313257	0.00538932052451689
0.415714285714286	0.298524168106643	0.0957526196836764	0.00563999915813448
0.485000000000000	0.369982676374084	0.0547066787312260	0.00593832691944317
0.554285714285714	0.445570614796729	0.0286675175475505	0.00630239708339577
0.623571428571429	0.524964568482066	0.0133490782897203	0.00676191891385003
0.692857142857143	0.607900632241631	0.00523830780270816	0.00737017010142593
0.762142857142857	0.694158440326117	0.00156830467249563	0.00823577047602281
0.831428571428571	0.783550581544519	0.000286570422058030	0.00963110202695841
0.900714285714286	0.875915275571398	1.56773160134005e-05	0.0125856153897637
0.970000000000000	0.971111126690248	0	0.0268826185399775
/
0	0	1	0
1e-4	            2.73430020906227e-06	0.999567891815917	0.00732679340708726
0.0692857142857143	0.0246388233702211	0.732955030208470	0.00753936794642511
0.138571428571428	0.0646721147110479	0.524022269999847	0.00777623403935617
0.207857142857143	0.113729504923719	0.363860439406422	0.00804217149444663
0.277142857142857	0.169751710881371	0.244011865308424	0.00834392150102531
0.346428571428571	0.231597192502964	0.156887801985113	0.00869068361544004
0.415714285714286	0.298517809797158	0.0957526248411881	0.00909541810931212
0.485000000000000	0.369976606777536	0.0547066823809953	0.00957711282546995
0.554285714285714	0.445565194147423	0.0286675198854498	0.0101649977017307
0.623571428571429	0.524960145046005	0.0133490796126222	0.0109070717846303
0.692857142857143	0.607897543452129	0.00523830843433348	0.0118894189281747
0.762142857142857	0.694157013782389	0.00156830490502417	0.0132875602448747
0.831428571428571	0.783551135880369	0.000286570475730770	0.0155417025089711
0.900714285714286	0.875918121209926	1.56773199955740e-05	0.0203159227828171
0.970000000000000	0.971116566501296	0	0.0434339502592571
/
0                   0                   1                   0
1e-4                1.21128082475515e-07	0.999953933372533	0.0314316520064094
0.0650000000000001	0.0246388556747079	0.732955165795594	0.0323447776403969
0.130000000000000	0.0646721756363727	0.524022471637401	0.0333610034161333
0.195000000000000	0.113729587511889	0.363860658444741	0.0345019554663674
0.260000000000000	0.169751808150539	0.244012070253039	0.0357965560558511
0.325000000000000	0.231597297694152	0.156887975015936	0.0372842748361653
0.390000000000000	0.298517916405153	0.0957527585983664	0.0390207164705371
0.455000000000000	0.369976708539270	0.0547067770357347	0.0410873464207536
0.520000000000000	0.445565285021447	0.0286675805175819	0.0436095731007905
0.585000000000000	0.524960219191578	0.0133491139213610	0.0467933325806158
0.650000000000000	0.607897595210176	0.00523832481519735	0.0510079617852316
0.715000000000000	0.694157037658752	0.00156831093552932	0.0570065247232189
0.780000000000000	0.783551126531243	0.000286571867705758	0.0666777138100006
0.845000000000000	0.875918073429202	1.56774232712929e-05	0.0871612462706866
0.910000000000000	0.971116475209535	0                   0.186350144735549
/
0.159747296918496	0                   0.478207338541855	0
0.215097477123930	0.00404457010470095	0.358101589793580	0
0.270447657329363	0.0152171404102929	0.262472370339913	0
0.325797837534797	0.0343394325603011	0.187653221023958	0
0.381148017740230	0.0622332426317145	0.130299015990360	0
0.436498197945664	0.0995472667381046	0.0873810501592425	0
0.491848378151098	0.146735026293001	0.0561817825084603	0
0.547198558356531	0.204042811784398	0.0342891758391590	0
0.602548738561965	0.271497215060379	0.0195905560589194	0
0.657898918767398	0.348889390560304	0.0102658883704641	0
0.713249098972832	0.435753686749886	0.00478032885198482	0
0.768599279178266	0.531336847074975	0.00187584763831515	0
0.823949459383699	0.634549947359484	0.000561612870057667	0
0.879299639589133	0.743883619370425	0.000102621433034094	0
0.934649819794566	0.857222519669587	5.61407989799743e-06	0
0.990000000000000	0.971116330550492	0                   0
/
0.159747276479445	0	0.478207341830254	0.000550480683254553
0.215097458047482	0.00404362886725798	0.358101578732263	0.000565173938411238
0.270447639615519	0.0152138906169725	0.262472351585224	0.000581726217872502
0.325797821183556	0.0343327044111225	0.187653199393606	0.000600193344196063
0.381148002751593	0.0622221134158344	0.130298994765182	0.000620797556054557
0.436498184319630	0.0995311498015024	0.0873810313664841	0.000643927816436907
0.491848365887667	0.146713752569524	0.0561817671855016	0.000670346697271332
0.547198547455704	0.204016696745790	0.0342891642764745	0.000702255999608931
0.602548729023741	0.271467105540640	0.0195905480208507	0.000740122019133142
0.657898910591778	0.348856684036795	0.0102658832921127	0.000785924708984508
0.713249092159815	0.435720311429787	0.00478032601016942	0.000842303532401190
0.768599273727852	0.531305182669992	0.00187584629403532	0.000918958125478253
0.823949455295889	0.634522647837310	0.000561612379153870	0.00103467752954253
0.879299636863926	0.743863250513457	0.000102621320556951	0.00123489744830680
0.934649818431963	0.857210754948835	5.61407161468334e-06	0.00183256629156024
0.990000000000000	0.971111126841457	0	0.00304144820811741
/
0.156520072479813	0	0.478208681382071	0.00496502519716441
0.210752067647826	0.00404438348709295	0.358102985043756	0.00509761449683427
0.264984062815838	0.0152164941020574	0.262473699785851	0.00524698167251892
0.319216057983851	0.0343380899853590	0.187654408407688	0.00541363084608802
0.373448053151863	0.0622310131817477	0.130300019280963	0.00559956805839264
0.427680048319876	0.0995440230634692	0.0873818543418306	0.00580830415689598
0.481912043487888	0.146730720206103	0.0561823929206359	0.00604672215300050
0.536144038655900	0.204037487391942	0.0342896120887901	0.00633469597569265
0.590376033823913	0.271491018064178	0.0195908465627747	0.00667643583061347
0.644608028991925	0.348882572312758	0.0102660655607047	0.00708981474007362
0.698840024159938	0.435746600844265	0.00478042510752140	0.00759865956753262
0.753072019327950	0.531329934637531	0.00187589201203243	0.00829053054375429
0.807304014495963	0.634543703666782	0.000561628703481982	0.00933505396523387
0.861536009663975	0.743878525179589	0.000102624982507675	0.0111424575750213
0.915768004831988	0.857218888374737	5.61433545595732e-06	0.0165388084230430
0.970000000000000	0.971113770263310	0	0.0274547221729460
/
0.156520058772790	0	0.478207341830254	0.00486556443146476
0.210752054854604	0.00404362886662836	0.358101578732263	0.00499543452835923
0.264984050936418	0.0152138906146036	0.262472351585224	0.00514173608744437
0.319216047018232	0.0343327044057767	0.187653199393606	0.00530496251068606
0.373448043100046	0.0622221134061461	0.130298994765182	0.00548707811148126
0.427680039181860	0.0995311497860048	0.0873810313664841	0.00569152083877463
0.481912035263674	0.146713752546679	0.0561817671855016	0.00592503087975757
0.536144031345488	0.204016696714024	0.0342891642764745	0.00620706941663913
0.590376027427302	0.271467105498370	0.0195905480208507	0.00654175792318015
0.644608023509116	0.348856683982475	0.0102658832921127	0.00694659672204345
0.698840019590930	0.435720311361942	0.00478032601016943	0.00744491538471157
0.753072015672744	0.531305182587264	0.00187584629403532	0.00812244662773195
0.807304011754558	0.634522647738511	0.000561612379153869	0.00914526220250675
0.861536007836372	0.743863250397632	0.000102621320556951	0.0109149572069720
0.915768003918186	0.857210754815361	5.61407161468329e-06	0.0161976062698528
0.970000000000000	0.971111126690248	0	0.0268826185399775
/
0.156520193048399	0	0.478207019025840	0.00784512628931321
0.210752180178506	0.00404550861343620	0.358101339380859	0.00805477982994223
0.264984167308612	0.0152203729578437	0.262472178023591	0.00829096852543294
0.319216154438719	0.0343461082888658	0.187653076752344	0.00855449052930364
0.373448141568826	0.0622442542521401	0.130298910699148	0.00884851921197096
0.427680128698933	0.0995631611013449	0.0873809757917684	0.00917860817813799
0.481912115829039	0.146755922628195	0.0561817320233881	0.00955564494418167
0.536144102959146	0.204068334844746	0.0342891432048624	0.0100110672841859
0.590376090089253	0.271526448828004	0.0195905362337177	0.0105515381711769
0.644608077219360	0.348920860077272	0.0102658772677070	0.0112053337268227
0.698840064349466	0.435785379959867	0.00478032328878171	0.0120101504500941
0.753072051479573	0.531366297188516	0.00187584526642487	0.0131045171990702
0.807304038609680	0.634574415202789	0.000561612087046726	0.0147568346673206
0.861536025739787	0.743900464539147	0.000102621271186199	0.0176162949447762
0.915768012869893	0.857230021721955	5.61406928831738e-06	0.0261564582564281
0.970000000000000	0.971116566501296	0	0.0434339502592571
/
0.146838472090641	0                   0.478207385467527	0.0336565709431276
0.197715907284599	0.00404557006326738	0.358101675459470	0.0345560480074694
0.248593342478556	0.0152205853320995	0.262472472908076	0.0355693704319850
0.299470777672513	0.0343465477849610	0.187653325071766	0.0366999624745743
0.350348212866470	0.0622449801316650	0.130299111422848	0.0379614393312154
0.401225648060428	0.0995642095553085	0.0873811311899471	0.0393776281704182
0.452103083254385	0.146757301188755	0.0561818467126502	0.0409952409606033
0.502980518448342	0.204070017815091	0.0342892232839412	0.0429491578630984
0.553857953642299	0.271528374108442	0.0195905885154842	0.0452679666527314
0.604735388836257	0.348922927898773	0.0102659086147153	0.0480729840599041
0.655612824030214	0.435787454329932	0.00478034006113872	0.0515259445268483
0.706490259224171	0.531368211439431	0.00187585289292309	0.0562211983289148
0.757367694418128	0.634575984316483	0.000561614773654461	0.0633103090907374
0.808245129612086	0.743901510268027	0.000102621865964981	0.0755786373371612
0.859122564806043	0.857230428207687	5.61411154033728e-06	0.112220309716304
0.910000000000000	0.971116475209535	0                   0.186350144735549
/

--KILLOUGH RELATIVE PERMEABILITY MODEL
EHYSTR
0.1  2  1.0  0.01  KR  RETR  /

-- ROCK OPTIONS
ROCKOPTS
--  default  default 
    PRESSURE NOSTORE ROCKNUM /

-- ROCK COMPRESSIBILITY
--
--    REF. PRES   COMPRESSIBILITY
ROCK
        1       1.4504e-04  /

-- SURFACE DENSITIES OF RESERVOIR FLUIDS (T = 25C -> lab | P = 1 bar | 1ppm)
DENSITY
--        OIL           WATER    GAS
          997.065606279569     0       1.78395493184180 / -- "water" phase not present here.

-- PVT PROPERTIES OF DRY GAS (NO VAPORIZED OIL)
-- WE WOULD USE PVTG TO SPECIFY THE PROPERTIES OF WET GAS
--
--   PGAS               BGAS                VISGAS (cP)
PVDG
1                   1.04727671835576	0.014941823686468
1.04729412282063	0.999752621211073	0.014942670788828
1.09682497969463	0.954374563747506	0.0149435594856343
1.14869835499703	0.911045630748221	0.0149444918946806
1.20302503608212	0.869673283357706	0.0149454702488564
1.25992104989487	0.830169161443221	0.0149464969030905
1.31950791077289	0.792448894880745	0.0149475743417759
1.38191287996778	0.756431923362417	0.0149487051867157
1.44726923744038	0.722041324340574	0.0149498922056322
1.5157165665104     0.689203648740958	0.0149511383212858
1.5874010519682     0.657848764094154	0.0149524466212543
1.66247579228558	0.627909704750277	0.0149538203684289
1.74110112659225	0.59932252885693	0.0149552630122877
1.82344497711643	0.572026181795016	0.0149567782010134
1.90968320782083	0.545962365780681	0.0149583697945297
2                   0.521075415354889	0.0149600418785367
4                   0.257949196201112	0.0149984656365416
7                   0.145142492651127	0.0150613679270848 /

-- PVT PROPERTIES OF LIVE OIL (WITH DISSOLVED GAS)
-- WE WOULD USE PVDO TO SPECIFY THE PROPERTIES OF DEAD OIL
--
-- FOR EACH VALUE OF RS THE SATURATION PRESSURE, FVF AND VISCOSITY
-- ARE SPECIFIED. DATA FOR UNDERSATURATED OIL MAY BE SUPPLIED FOR ANY RS, 
-- BUT MUST BE SUPPLIED FOR THE HIGHEST RS (26.462).
--
--   RS                 POIL                FVFO                VISO
PVTO
    0.74955158875314	1                   1.00309107275277	0.894998265799211 /
    0.785950572164756	1.04729412282063	1.00314397583527	0.895258846405338 /
    0.824050364336449	1.09682497969463	1.00319934970884	0.895531738052989 /
    0.86392940673504	1.14869835499703	1.00325730820898	0.895817512800816 /
    0.905669657688918	1.20302503608212	1.00331797026328	0.896116768377414 /
    0.949356740088139	1.25992104989487	1.00338146010405	0.896430129242884 /
    0.995080094274747	1.31950791077289	1.00344790748837	0.896758247685129 /
    1.04293313619615	1.38191287996778	1.0035174479255     0.897101804951013 /
    1.0930134208814     1.44726923744038	1.00359022291185	0.897461512412353 /
    1.14542281128495	1.5157165665104     1.00366638017345	0.897838112766643 /
    1.20026765252462	1.5874010519682     1.00374607391596	0.898232381272146 /
    1.25765895152029	1.66247579228558	1.00382946508225	0.89864512701681 /
    1.31771256201618	1.74110112659225	1.00391672161744	0.899077194220274 /
    1.38054937494286	1.82344497711643	1.00400801874132	0.899529463567942 /
    1.44629551404454	1.90968320782083	1.00410353922798	0.900002853575798 /
    1.5150825366625     2                   1.00420347369253	0.900498321984387
                     	4                   1.00411105047434	0.900494623981122
                        7                   1.00397253750897	0.900489079812022 /    
/

SOLUTION ===============================================================
-------- THE SOLUTION SECTION DEFINES THE INITIAL STATE OF THE SOLUTION
-------- VARIABLES (PHASE PRESSURES, SATURATIONS AND GAS-OIL RATIOS)
------------------------------------------------------------------------
/

SUMMARY  ===============================================================
-------- THIS SECTION SPECIFIES DATA TO BE WRITTEN TO THE SUMMARY FILES
-------- AND WHICH MAY LATER BE USED WITH THE ECLIPSE GRAPHICS PACKAGE
------------------------------------------------------------------------
/

SCHEDULE ===============================================================
-------- THE SCHEDULE SECTION DEFINES THE OPERATIONS TO BE SIMULATED
------------------------------------------------------------------------
-- CONTROLS ON OUTPUT AT EACH REPORT TIME
/

END     ================================================================