-- =====================================================================
-- This is an ECLIPSE-type input file for fluid properties using the
-- ad-blackoil module in MRST. This file is for a two-phase fluid system 
-- with CO2 (dry gas) and brine (live oil). PVT properties are for 25C of 
-- temperature (i.e approx lab), and four regions are specified for
-- kr-Pc.
-- =====================================================================
RUNSPEC
TITLE
   MODEL 1 RUN

DIMENS
   30000    1    1  / -- This is wrong (unstructured grid), here just to read the file.

OIL

GAS

DISGAS

METRIC

TABDIMS
-- NTSFUN NTPVT NSSFUN NPPVT NTFIP NRPVT
    14       1     16    18     1     16 
-- NRVPVT NTENDP NEOSRR NEOSRS NFLUXR NTHERR (SET TO DEFAULTS)
     20     1      1     NaN     10     1
-- NTROCC(N ROCK tables)
      1 /

--HYSTERESIS OPTION
SATOPTS
        'HYSTER'    /

START
  24 'NOV' 2021  /

GRID    ================================================================

/

PROPS    ===============================================================
-------- THE PROPS SECTION DEFINES THE REL. PERMEABILITIES, CAPILLARY
-------- PRESSURES, AND THE PVT PROPERTIES OF THE RESERVOIR FLUIDS
----------------------------------------------------------------------
-- Units are "metric units", i.e. densities in kg/m^3 and p in bar.
--
-- SGAS KRG KROG(SGAS) PCOG(SGAS)
SGOF
0                   0                   1                   0
0.00100000000000000	1.23422365996703e-05	0.995375115292855	0
0.0642857142857143	0.00406019230251410	0.734173088204085	0
0.128571428571429	0.0106567115247384	0.525835323011527	0
0.192857142857143	0.0187399017310910	0.365831875899231	0
0.257142857142857	0.0279704733323030	0.245858425104182	0
0.321428571428572	0.0381603499929228	0.158448660893974	0
0.385714285714286	0.0491862729325710	0.0969608040099308	0
0.450000000000000	0.0609597779666089	0.0555629464908537	0
0.514285714285714	0.0734135832256450	0.0292169599154902	0
0.578571428571429	0.0864944048767077	0.0136606185183892	0
0.642857142857143	0.100158763737822	0.00538742796491393	0
0.707142857142857	0.114370354030593	0.00162338038040980	0
0.771428571428571	0.129098299431506	0.000299341371737841	0
0.835714285714286	0.144315946436102	1.66322886203684e-05	0
0.900000000000000	0.160000000000000	0                   0
/
0                   0                   1                   0
0.00100000000000000	8.75791540315719e-06	0.997666068894093	0
0.0628571428571429	0.00279175023487800	0.858731780569252	0
0.125714285714286	0.00732720140710445	0.728481005325374	0
0.188571428571429	0.0128846739241811	0.609199149040796	0
0.251428571428571	0.0192309038930267	0.500833694524579	0
0.314285714285714	0.0262365900668766	0.403327390485460	0
0.377142857142857	0.0338169939874537	0.316617277747163	0
0.440000000000000	0.0419112985673934	0.240633375084492	0
0.502857142857143	0.0504732494706975	0.175296842996389	0
0.565714285714286	0.0594662158736155	0.120517302269485	0
0.628571428571429	0.0688603075067142	0.0761886841543640	0
0.691428571428571	0.0786305656808301	0.0421822709718774	0
0.754285714285714	0.0887557643349644	0.0183335402113110	0
0.817142857142857	0.0992175804871965	0.00441166165829502	0
0.880000000000000	0.110000000000000	0                   0
/
0                   0                   1                   0
0.00100000000000000	7.95570695498407e-06	0.998832241831905	0.000330000000000000
0.0628571428571429	0.00253720585027874	0.926671112220895	0.000339437942899867
0.125714285714286	0.00665964281171331	0.853498137763997	0.000350101247777061
0.188571428571429	0.0117113222625988	0.780493723873873	0.000362073263460469
0.251428571428571	0.0174801908070378	0.707672791365614	0.000375657454776543
0.314285714285714	0.0238486993499736	0.635053213483429	0.000391267952433423
0.377142857142857	0.0307398089568515	0.562656796537145	0.000409488179014672
0.440000000000000	0.0380982272174744	0.490510751903976	0.000431172892525102
0.502857142857143	0.0458819007699660	0.418650013303261	0.000457637904366416
0.565714285714286	0.0540575251800619	0.347121112994732	0.000491043923593874
0.628571428571429	0.0625979240814518	0.275989208333317	0.000535266050312468
0.691428571428571	0.0714804046365770	0.205352332809992	0.000598205384421389
0.754285714285714	0.0806856675545056	0.135375674096958	0.000699677693521023
0.817142857142857	0.0901970529288952	0.0664032236908066	0.000914589809170821
0.880000000000000	0.100000000000000	0                   0.00195520280795480
/
0                   0                   1                   0
0.00100000000000000	1.59253868835824e-06	0.999388282713575	0.00100000000000000
0.0628571428571429	0.000507614579789473	0.960902164466515	0.00102856810759115
0.125714285714286	0.00133226416328705	0.920388644527024	0.00106084427100394
0.188571428571429	0.00234273163892337	0.878283219502342	0.00109708041854475
0.251428571428571	0.00349660524233773	0.834369244519187	0.00113819461355554
0.314285714285714	0.00477037573528091	0.788375251293442	0.00118543966470427
0.377142857142857	0.00614863625081609	0.739953167703521	0.00124058043830705
0.440000000000000	0.00762032926768898	0.688643912066082	0.00130620247181783
0.502857142857143	0.00917704503180384	0.633820036788289	0.00138628571508770
0.565714285714286	0.0108121235097085	0.574583300653315	0.00148736527772224
0.628571428571429	0.0125201302140783	0.509564244153043	0.00162116060485933
0.691428571428571	0.0142965272998948	0.436476309679755	0.00181156474742285
0.754285714285714	0.0161374555739657	0.350908314542547	0.00211849359025392
0.817142857142857	0.0180395836686568	0.241650874503095	0.00276839634425756
0.880000000000000	0.0200000000000000	0                   0.00591334027602530
/
0                   0                   1                   0
0.00100000000000000	4.10998743851990e-06	0.999317190428267	0.00300000000000000
0.0614285714285714	0.00126893569320001	0.957425896514028	0.00308567211889719
0.122857142857143	0.00333046542068550	0.913476121281415	0.00318249881761887
0.184285714285714	0.00585655766276659	0.867985503005431	0.00329120522107256
0.245714285714286	0.00874118363745447	0.820751815784924	0.00341454545793723
0.307142857142857	0.0119255699108808	0.771522797905522	0.00355627786943605
0.368571428571429	0.0153711987806938	0.719976606586504	0.00372169693342734
0.430000000000000	0.0190504258852030	0.665691100415072	0.00391855908216492
0.491428571428571	0.0229422263054077	0.608092924378717	0.00415880388323233
0.552857142857143	0.0270299494616736	0.546367179417534	0.00446203619348627
0.614285714285714	0.0313000086789233	0.479282019511679	0.00486341348290959
0.675714285714286	0.0357410589247361	0.404802047984287	0.00543461309190015
0.737142857142857	0.0403434518296860	0.319053774977887	0.00635537797108180
0.798571428571429	0.0450988586180980	0.212391258556613	0.00830503704800101
0.860000000000000	0.0500000000000000	0                   0.0177395892567825
/
0                   0                   1                   0
1e-6                6.82989103082679e-10	0.999997815139635	0.0150000000000000
0.0485714285714285	0.00228370723918131	0.895742202639330	0.0154353103160213
0.0971428571428572	0.00599410813187371	0.795310618914159	0.0159196929910864
0.145714285714286	0.0105407880908856	0.698866310511792	0.0164635058711986
0.194285714285714	0.0157328976675114	0.606592117047456	0.0170805271012272
0.242857142857143	0.0214646434179536	0.518698035474366	0.0177895586663928
0.291428571428572	0.0276666914777506	0.435428664180687	0.0186170875024424
0.340000000000000	0.0342892799069459	0.357073858085077	0.0196019171892299
0.388571428571429	0.0412945618548611	0.283984631071709	0.0208037787228373
0.437142857142857	0.0486525644227441	0.216598187518130	0.0223207511905106
0.485714285714286	0.0563388298867281	0.155480193039829	0.0243287209798183
0.534285714285714	0.0643329356176677	0.101403487853642	0.0271862786167488
0.582857142857143	0.0726175131048220	0.0555179123845443	0.0317926563129814
0.631428571428572	0.0811775692178668	0.0198239951679785	0.0415464913372895
0.680000000000000	0.0900000000000000	0                   0.0887477151251720
/
0                   0                   1                   0
1e-6                6.82989103082679e-10	0.999997815139635	15.0000000000000
0.0485714285714285	0.00228370723918131	0.895742202639330	15.4353103160213
0.0971428571428572	0.00599410813187371	0.795310618914159	15.9196929910864
0.145714285714286	0.0105407880908856	0.698866310511792	16.4635058711986
0.194285714285714	0.0157328976675114	0.606592117047456	17.0805271012272
0.242857142857143	0.0214646434179536	0.518698035474366	17.7895586663928
0.291428571428572	0.0276666914777506	0.435428664180687	18.6170875024424
0.340000000000000	0.0342892799069459	0.357073858085077	19.6019171892299
0.388571428571429	0.0412945618548611	0.283984631071709	20.8037787228373
0.437142857142857	0.0486525644227441	0.216598187518130	22.3207511905106
0.485714285714286	0.0563388298867281	0.155480193039829	24.3287209798183
0.534285714285714	0.0643329356176677	0.101403487853642	27.1862786167488
0.582857142857143	0.0726175131048220	0.0555179123845443	31.7926563129814
0.631428571428572	0.0811775692178668	0.0198239951679785	41.5464913372895
0.680000000000000	0.0900000000000000	0                   88.7477151251720
/
0.0600000000000000	0                   0.750000160310498	0
0.116000000000000	0.000311975924654294	0.562500240465773	0
0.172000000000000	0.00141981260590715	0.412972538658297	0
0.228000000000000	0.00362706765527745	0.295782495639381	0
0.284000000000000	0.00719490012510932	0.205780518163362	0
0.340000000000000	0.0123390695696912	0.138295423241639	0
0.396000000000000	0.0192285955630840	0.0891274098543401	0
0.452000000000000	0.0279837939411229	0.0545404755713407	0
0.508000000000000	0.0386736751706083	0.0312541707620920	0
0.564000000000000	0.0513125319431059	0.0164345469781421	0
0.620000000000000	0.0658553380293938	0.00768410120150511	0
0.676000000000000	0.0821912167698079	0.00303042952575611	0
0.732000000000000	0.100133412120206	0.000913151854347923	0
0.788000000000000	0.119401885411808	0.000168379593583890	0
0.844000000000000	0.139585879993781	9.35566634845332e-06	0
0.900000000000000	0.160000000000000	0                   0
/
0.130000000000000	0                   0.720000277741382	0
0.180000000000000	0.000421782749949171	0.624820835199192	0
0.230000000000000	0.00161605488426954	0.536553508347370	0
0.280000000000000	0.00369292351661118	0.455170110174147	0
0.330000000000000	0.00675708344021102	0.380640321106307	0
0.380000000000000	0.0108917363765967	0.312931327308744	0
0.430000000000000	0.0161565504128415	0.252007356981836	0
0.480000000000000	0.0225863884779574	0.197829071920477	0
0.530000000000000	0.0301898865329338	0.150352746397093	0
0.580000000000000	0.0389476154825042	0.109529119848785	0
0.630000000000000	0.0488095718532302	0.0753017214599731	0
0.680000000000000	0.0596915607083088	0.0476042772660571	0
0.730000000000000	0.0714695597131378	0.0263563617792471	0
0.780000000000000	0.0839697984683696	0.0114551779069893	0
0.830000000000000	0.0969470976467203	0.00275649812195215	0
0.880000000000000	0.110000000000000	0                   0
/
0.0600000000000000	0                       0.930000949148690	0.000339002010202414
0.114666666666667	0.000198455719721186	0.866347018261459	0.000348227091162281
0.169333333333333	0.000898655403210050	0.802818754981602	0.000358409101084638
0.224000000000000	0.00228869712468598	0.739425566743547	0.000369729807656802
0.278666666666667	0.00453041349520189	0.676178410449912	0.000382422003761191
0.333333333333333	0.00775738006979910	0.613090212704363	0.000396789233215619
0.388000000000000	0.0120740858412032	0.550176457938727	0.000413233720439200
0.442666666666667	0.0175547191074864	0.487456037984500	0.000432295650603219
0.497333333333333	0.0242415559187628	0.424952527337195	0.000455312191204603
0.552000000000000	0.0321428442579256	0.362696190720400	0.000483755337580610
0.606666666666667	0.0412299499174621	0.300727341218585	0.000519855309183261
0.661333333333333	0.0514333042226960	0.239102427711910	0.000568070794151057
0.716000000000000	0.0626361815273108	0.177906381222971	0.000637871832523973
0.770666666666667	0.0746639015239616	0.117282311599035	0.000755685093357031
0.825333333333333	0.0872606050404776	0.0575282348474791	0.00107225844535021
0.880000000000000	0.100000000000000	0                   0.00195520280795480
/
0.0800000000000000	0                   0.950000211767638	0.00103737069761282
0.133333333333333	4.99711343844300e-05	0.915373629010035	0.00106523653131191
0.186666666666667	0.000212370206050838	0.879584501411312	0.00109598235346775
0.240000000000000	0.000519853558799026	0.842499493640329	0.00113071930537176
0.293333333333333	0.00100076104668339	0.803957297934476	0.00116969131432136
0.346666666666667	0.00167824121286320	0.763759603289890	0.00121384551777237
0.400000000000000	0.00257007904952636	0.721657914798176	0.00126444299594733
0.453333333333333	0.00368847497544688	0.677333616418243	0.00132318982645083
0.506666666666667	0.00503974870210692	0.630366476883597	0.00139241174918677
0.560000000000000	0.00662394557056671	0.580182147214170	0.00147817622657364
0.613333333333333	0.00843430107889918	0.525958401087589	0.00158872537403822
0.666666666666667	0.0104564762371020	0.466441671384126	0.00173655705489783
0.720000000000000	0.0126673780426855	0.399538903568465	0.00195107785780061
0.773333333333333	0.0150331040384035	0.321212217332606	0.00231543381873987
0.826666666666667	0.0175045016556541	0.221200837947347	0.00332247385161621
0.880000000000000	0.0200000000000000	0                   0.00591334027602530
/
0.100000000000000	0                   0.930000002981467	0.00314647027855964
0.150666666666667	0.000154348535112074	0.893083949247415	0.00323171163902736
0.201333333333333	0.000621949439921217	0.855061700770495	0.00332543452711717
0.252000000000000	0.00147046087085217	0.815810861937217	0.00342904830934642
0.302666666666667	0.00276005398217447	0.775183920913594	0.00354595008131133
0.353333333333333	0.00453928001813430	0.733000272993187	0.00368066274701090
0.404000000000000	0.00684449713200553	0.689034627287879	0.00383523603316436
0.454666666666667	0.00969933775574053	0.642999551176028	0.00401502947515168
0.505333333333333	0.0131140255329988	0.594518036937550	0.00422744251470066
0.556000000000000	0.0170844666430185	0.543078030413554	0.00448257177573583
0.606666666666667	0.0215910064469196	0.487951758333383	0.00481363025321368
0.657333333333333	0.0265966440442020	0.428039078788767	0.00526369599959755
0.708000000000000	0.0320442645717525	0.361522211677249	0.00591854998188865
0.758666666666667	0.0378517940527374	0.284941805379548	0.00703851432981629
0.809333333333333	0.0439016823244755	0.189683223977368	0.0102269847667541
0.860000000000000	0.0500000000000000	0                   0.0177395892567825
/
0.140000000000000	0                   0.710000016515804	0.0163995278853030
0.176000000000000	0.000473524118584718	0.640828518455153	0.0168482367558046
0.212000000000000	0.00169634358054024	0.574017148635117	0.0173391150838170
0.248000000000000	0.00369851216111743	0.509657725630411	0.0178771793666804
0.284000000000000	0.00652648330720502	0.447853462363490	0.0184905242686936
0.320000000000000	0.0102161585012616	0.388721527674096	0.0191963990829056
0.356000000000000	0.0147892432295730	0.332396493598636	0.0199978245179476
0.392000000000000	0.0202517075968030	0.279035105759816	0.0209108591323201
0.428000000000000	0.0265925567800127	0.228823111455725	0.0220352034318898
0.464000000000000	0.0337824497280883	0.181985450393716	0.0234310403681278
0.500000000000000	0.0417718953133419	0.138802295607314	0.0251691791083273
0.536000000000000	0.0504886763131356	0.0996361417548348	0.0273488566530864
0.572000000000000	0.0598338231156248	0.0649822468874347	0.0307629954161764
0.608000000000000	0.0696744707837284	0.0355774615411105	0.0368417003255644
0.644000000000000	0.0798281048434093	0.0127037814533578	0.0557520580039572
0.680000000000000	0.0900000000000000	0                   0.0887477151251720
/
0.140000000000000	0                   0.710000016515804	16.3995278853030
0.176000000000000	0.000473524118584718	0.640828518455153	16.8482367558046
0.212000000000000	0.00169634358054024	0.574017148635117	17.3391150838170
0.248000000000000	0.00369851216111743	0.509657725630411	17.8771793666804
0.284000000000000	0.00652648330720502	0.447853462363490	18.4905242686936
0.320000000000000	0.0102161585012616	0.388721527674096	19.1963990829056
0.356000000000000	0.0147892432295730	0.332396493598636	19.9978245179476
0.392000000000000	0.0202517075968030	0.279035105759816	20.9108591323201
0.428000000000000	0.0265925567800127	0.228823111455725	22.0352034318898
0.464000000000000	0.0337824497280883	0.181985450393716	23.4310403681278
0.500000000000000	0.0417718953133419	0.138802295607314	25.1691791083273
0.536000000000000	0.0504886763131356	0.0996361417548348	27.3488566530864
0.572000000000000	0.0598338231156248	0.0649822468874347	30.7629954161764
0.608000000000000	0.0696744707837284	0.0355774615411105	36.8417003255644
0.644000000000000	0.0798281048434093	0.0127037814533578	55.7520580039572
0.680000000000000	0.0900000000000000	0                   88.7477151251720
/

--KILLOUGH RELATIVE PERMEABILITY MODEL
EHYSTR
0.1  2  1.0  0.01  KR  RETR  /

-- ROCK OPTIONS
ROCKOPTS
--  default  default 
    PRESSURE NOSTORE ROCKNUM /

-- ROCK COMPRESSIBILITY
--
--    REF. PRES   COMPRESSIBILITY
ROCK
        1       1.4504e-04  /

-- SURFACE DENSITIES OF RESERVOIR FLUIDS (T = 25C -> lab | P = 1 bar | 1ppm)
DENSITY
--        OIL           WATER    GAS
          997.065606279569     0       1.78395493184180 / -- "water" phase not present here.

-- PVT PROPERTIES OF DRY GAS (NO VAPORIZED OIL)
-- WE WOULD USE PVTG TO SPECIFY THE PROPERTIES OF WET GAS
--
--   PGAS               BGAS                VISGAS (cP)
PVDG
1                   1.04727671835576	0.014941823686468
1.04729412282063	0.999752621211073	0.014942670788828
1.09682497969463	0.954374563747506	0.0149435594856343
1.14869835499703	0.911045630748221	0.0149444918946806
1.20302503608212	0.869673283357706	0.0149454702488564
1.25992104989487	0.830169161443221	0.0149464969030905
1.31950791077289	0.792448894880745	0.0149475743417759
1.38191287996778	0.756431923362417	0.0149487051867157
1.44726923744038	0.722041324340574	0.0149498922056322
1.5157165665104     0.689203648740958	0.0149511383212858
1.5874010519682     0.657848764094154	0.0149524466212543
1.66247579228558	0.627909704750277	0.0149538203684289
1.74110112659225	0.59932252885693	0.0149552630122877
1.82344497711643	0.572026181795016	0.0149567782010134
1.90968320782083	0.545962365780681	0.0149583697945297
2                   0.521075415354889	0.0149600418785367
4                   0.257949196201112	0.0149984656365416
7                   0.145142492651127	0.0150613679270848 /

-- PVT PROPERTIES OF LIVE OIL (WITH DISSOLVED GAS)
-- WE WOULD USE PVDO TO SPECIFY THE PROPERTIES OF DEAD OIL
--
-- FOR EACH VALUE OF RS THE SATURATION PRESSURE, FVF AND VISCOSITY
-- ARE SPECIFIED. DATA FOR UNDERSATURATED OIL MAY BE SUPPLIED FOR ANY RS, 
-- BUT MUST BE SUPPLIED FOR THE HIGHEST RS (26.462).
--
--   RS                 POIL                FVFO                VISO
PVTO
    0.74955158875314	1                   1.00309107275277	0.894998265799211 /
    0.785950572164756	1.04729412282063	1.00314397583527	0.895258846405338 /
    0.824050364336449	1.09682497969463	1.00319934970884	0.895531738052989 /
    0.86392940673504	1.14869835499703	1.00325730820898	0.895817512800816 /
    0.905669657688918	1.20302503608212	1.00331797026328	0.896116768377414 /
    0.949356740088139	1.25992104989487	1.00338146010405	0.896430129242884 /
    0.995080094274747	1.31950791077289	1.00344790748837	0.896758247685129 /
    1.04293313619615	1.38191287996778	1.0035174479255     0.897101804951013 /
    1.0930134208814     1.44726923744038	1.00359022291185	0.897461512412353 /
    1.14542281128495	1.5157165665104     1.00366638017345	0.897838112766643 /
    1.20026765252462	1.5874010519682     1.00374607391596	0.898232381272146 /
    1.25765895152029	1.66247579228558	1.00382946508225	0.89864512701681 /
    1.31771256201618	1.74110112659225	1.00391672161744	0.899077194220274 /
    1.38054937494286	1.82344497711643	1.00400801874132	0.899529463567942 /
    1.44629551404454	1.90968320782083	1.00410353922798	0.900002853575798 /
    1.5150825366625     2                   1.00420347369253	0.900498321984387
                     	4                   1.00411105047434	0.900494623981122
                        7                   1.00397253750897	0.900489079812022 /    
/

SOLUTION ===============================================================
-------- THE SOLUTION SECTION DEFINES THE INITIAL STATE OF THE SOLUTION
-------- VARIABLES (PHASE PRESSURES, SATURATIONS AND GAS-OIL RATIOS)
------------------------------------------------------------------------
/

SUMMARY  ===============================================================
-------- THIS SECTION SPECIFIES DATA TO BE WRITTEN TO THE SUMMARY FILES
-------- AND WHICH MAY LATER BE USED WITH THE ECLIPSE GRAPHICS PACKAGE
------------------------------------------------------------------------
/

SCHEDULE ===============================================================
-------- THE SCHEDULE SECTION DEFINES THE OPERATIONS TO BE SIMULATED
------------------------------------------------------------------------
-- CONTROLS ON OUTPUT AT EACH REPORT TIME
/

END     ================================================================